  45
        -71.81853025
 C          0.5913563996        0.5108710725        2.5899588768
 P          1.0415153612        0.5498256796        0.8217159989
 P         -1.6148467300        0.2328102471       -0.8961711828
 C         -2.2140493373       -0.0958379715       -2.5881740205
 Cl         1.7908469496       -2.4713693057        0.4640339132
 H         -0.4844175264        0.6136154676        2.6995846176
 H         -1.3879292636       -0.0291051253       -3.2902711531
 Cl        -0.8743583489       -2.8084311494       -1.5729944477
 C          0.3077707358        1.9863898064        0.0130323302
 C         -0.8283096041        1.8493591977       -0.7540955022
 C         -1.3838834358        2.9508374660       -1.3720644133
 C         -0.7900957235        4.1926049427       -1.2278996251
 C          0.3515858119        4.3287182984       -0.4621705467
 C          0.9018028294        3.2227567076        0.1615685489
 H         -2.2801029302        2.8356199659       -1.9597145245
 H         -1.2209142277        5.0539000612       -1.7114032835
 H          0.8140533668        5.2954538309       -0.3494864192
 H          1.7938175293        3.3127087775        0.7608005610
 Pd         0.0911354504       -1.2305192856       -0.3124009464
 H         -2.9764885419        0.6251408563       -2.8681855890
 H          1.0759731514        1.3303570152        3.1129800561
 H         -2.6386117883       -1.0944186831       -2.6377632633
 C         -4.9388301751        0.0450158742        2.2041346558
 C         -5.0933066198        0.8142099024        1.0678104986
 C         -4.0839766360        0.8580712358        0.1222851086
 C         -2.9325561630        0.1293686064        0.3167778993
 C         -2.7716487655       -0.6332841538        1.4514698094
 C         -3.7788555242       -0.6784151293        2.3981926887
 H         -5.7243614054        0.0101606572        2.9412777463
 H         -5.9969443404        1.3819197145        0.9179618457
 H         -4.1870423459        1.4632361775       -0.7643493069
 H         -1.8638936890       -1.1960677930        1.5944725837
 H         -3.6574823658       -1.2779264036        3.2854439861
 C          5.5266896273        0.5358287206        0.0563047047
 C          5.0543327851        0.2495223810        1.3219615910
 C          3.6933355477        0.2576676853        1.5692161605
 C          2.8162216448        0.5554992456        0.5513349757
 C          3.2817107107        0.8345305731       -0.7136802698
 C          4.6425958825        0.8275942363       -0.9633961405
 H          6.5869925795        0.5274900085       -0.1368921495
 H          5.7443390174        0.0151727430        2.1158808118
 H          3.3132731612        0.0240838462        2.5503823976
 H          2.5771877476        1.0551618892       -1.5004734330
 H          5.0101573390        1.0463693791       -1.9524681499
 H          0.9033224570       -0.4303350302        3.0336943586
  45
        -71.81841129
 C          2.0386591038        1.2400120271        2.3821944159
 P          1.4877689837        0.8162877453        0.6941391966
 P         -1.1110232555        0.0463808444       -0.9218692463
 C         -0.6195280519       -0.5928407903       -2.5592827606
 Cl         1.4834530553       -1.9075492021        2.2570938295
 H          1.1754329139        1.4218221850        3.0160062507
 H         -1.1812611165       -0.0865943436       -3.3390673299
 Cl        -1.3677625161       -2.7390549376        0.5639429104
 C          0.4763245755        2.1215255587       -0.0300215390
 C         -0.6457119137        1.7788658552       -0.7507754504
 C         -1.4218451254        2.7563387547       -1.3386249115
 C         -1.0664405246        4.0870538890       -1.2046688253
 C          0.0624487551        4.4313885102       -0.4864110615
 C          0.8378705729        3.4467643554        0.1007325698
 H         -2.3008186791        2.4713331944       -1.8944137421
 H         -1.6702197731        4.8536771457       -1.6617182638
 H          0.3414084432        5.4672628870       -0.3846557878
 H          1.7247200265        3.7040872450        0.6565770394
 Pd         0.0765427820       -1.0374976010        0.7468501345
 H         -0.8130885024       -1.6603588778       -2.6148526275
 H          2.6600041784        2.1306219235        2.3661940841
 H          0.4396523709       -0.4161957881       -2.7224603307
 C         -5.5486659984       -0.3829750283       -0.0145390361
 C         -4.6932284778        0.1814248183        0.9107673698
 C         -3.3473037384        0.3089209193        0.6160282208
 C         -2.8681829656       -0.1275135188       -0.5982292824
 C         -3.7166041817       -0.6929150422       -1.5228951293
 C         -5.0626931843       -0.8202317697       -1.2309495019
 H         -6.5969697581       -0.4849976208        0.2141330180
 H         -5.0709330201        0.5191011518        1.8618418388
 H         -2.6648207003        0.7452625681        1.3288930477
 H         -3.3259815964       -1.0372395867       -2.4664774222
 H         -5.7303077067       -1.2634135980       -1.9515379352
 C          4.9680250212        0.0087502580       -2.1231773076
 C          3.9286937165       -0.8963977131       -2.0397337896
 C          2.8752149939       -0.6585652303       -1.1758555557
 C          2.8696763222        0.4780769177       -0.3993772535
 C          3.9001617758        1.3867261144       -0.4839414970
 C          4.9556573835        1.1507650350       -1.3470203192
 H          5.7898783511       -0.1762056065       -2.7954835735
 H          3.9377675173       -1.7877538348       -2.6453432218
 H          2.0624821419       -1.3620966401       -1.1013257884
 H          3.8734203495        2.2791820208        0.1207879745
 H          5.7653397670        1.8587335601       -1.4140967734
 H          2.6137173791        0.4171518168        2.7969840407
  45
        -71.81832934
 C          0.3846652345        0.5062303425        2.4550831109
 P          0.9699734887        0.5963868362        0.7278861750
 P         -1.5826689575        0.3839815632       -1.0185048602
 C         -2.3690764556        0.1190328233       -2.6434100141
 Cl         1.4056185323       -2.5911508999        0.6604682011
 H          0.7004558444        1.3884731357        3.0042597326
 H         -1.6359394742        0.2513365707       -3.4339171137
 Cl        -0.9703286152       -2.7273643397       -1.7010895659
 C          0.3600234229        2.0758252560       -0.0988187531
 C         -0.7637392688        1.9849628879       -0.8885984662
 C         -1.2636435553        3.1073730146       -1.5167714414
 C         -0.6214076890        4.3231619802       -1.3595556941
 C          0.5112327793        4.4121387957       -0.5727741182
 C          1.0038465678        3.2854352568        0.0618277238
 H         -2.1536105648        3.0281255292       -2.1193573759
 H         -1.0070455290        5.2017694881       -1.8500120549
 H          1.0106951639        5.3592032319       -0.4512376415
 H          1.8856371817        3.3381683023        0.6796678921
 Pd         0.0013486557       -1.1964218655       -0.3881728011
 H         -3.1797061246        0.8277558333       -2.7863623644
 H          0.7925147651       -0.3785140920        2.9356577669
 H         -2.7688799383       -0.8894206462       -2.6989918094
 C         -4.4250522569       -0.2581951594        2.4661786107
 C         -4.1165267540       -1.3067348878        1.6214648213
 C         -3.2619715056       -1.1003923305        0.5540145377
 C         -2.7305106658        0.1499589623        0.3376176749
 C         -3.0261279214        1.1962079867        1.1803785411
 C         -3.8800682045        0.9926157568        2.2492321627
 H         -5.0895559695       -0.4175766757        3.2996287588
 H         -4.5339349769       -2.2846686126        1.7963915527
 H         -2.9801889754       -1.9107476417       -0.0999852608
 H         -2.5845955014        2.1634062173        1.0022316390
 H         -4.1170208563        1.8082931096        2.9123915307
 C          5.4994184444        0.3632862049        0.3527660242
 C          4.6938008042       -0.0476102885       -0.6906206322
 C          3.3176310354        0.0246703287       -0.5684323712
 C          2.7579966947        0.5001960683        0.5956652854
 C          3.5571057532        0.9165486074        1.6364641612
 C          4.9335066934        0.8470165842        1.5157689577
 H          6.5716392391        0.3063129893        0.2592595917
 H          5.1347558716       -0.4259472046       -1.5981910749
 H          2.6763826464       -0.2907056839       -1.3763695593
 H          3.1040226580        1.2952054980        2.5384218477
 H          5.5624767322        1.1695388079        2.3292352309
 H         -0.6996985396        0.4492412461        2.4763728297
  45
        -71.81746701
 C          0.3393866064        0.6694886344        2.4530381537
 P          0.9535646144        0.6530195413        0.7344870302
 P         -1.6086539862        0.2544095824       -1.0608813833
 C         -2.3766536538       -0.1258992880       -2.6705285136
 Cl         1.6567758231       -2.4309982914        0.6169328602
 H         -0.7459193955        0.6259976196        2.4577516526
 H         -2.7466625115       -1.1472086313       -2.6689790937
 Cl        -1.0214959686       -2.8815698036       -1.3493374611
 C          0.3007632483        2.0420266972       -0.2124148593
 C         -0.8062987677        1.8701122254       -1.0145376883
 C         -1.3174532662        2.9347501632       -1.7279825396
 C         -0.7054083296        4.1732666866       -1.6457163814
 C          0.4093448809        4.3431661989       -0.8472994297
 C          0.9137643148        3.2748891966       -0.1266427904
 H         -2.1940154891        2.7936065169       -2.3390992642
 H         -1.1007618859        5.0061746482       -2.2035476396
 H          0.8858086063        5.3075858380       -0.7837466272
 H          1.7824977093        3.3913571144        0.5013547065
 Pd         0.0408496519       -1.1935401640       -0.3249570353
 H         -1.6431207685       -0.0178687567       -3.4643857780
 H          0.6566046898        1.5795350033        2.9540559457
 H         -3.2067607675        0.5492910424       -2.8573547310
 C         -4.4622751063       -0.1959571024        2.4453538740
 C         -3.9736893357        1.0535307329        2.1157959741
 C         -3.1155779618        1.1963466093        1.0403833015
 C         -2.7591575520        0.0909275219        0.3031705683
 C         -3.2337901172       -1.1572179472        0.6334333631
 C         -4.0925633491       -1.3033390891        1.7071282273
 H         -5.1303327916       -0.3078069715        3.2836878567
 H         -4.2581764058        1.9158137348        2.6961346460
 H         -2.7180817173        2.1627277401        0.7752403592
 H         -2.9026206952       -2.0110827935        0.0637415807
 H         -4.4654045381       -2.2795521475        1.9701649761
 C          5.4859213109        0.5151867498        0.3685856362
 C          4.6871041751        0.3096048033       -0.7387352253
 C          3.3099723895        0.3558360209       -0.6126256995
 C          2.7434232442        0.6033517120        0.6169245914
 C          3.5354549493        0.8109159841        1.7234154103
 C          4.9125094844        0.7667493479        1.5994000673
 H          6.5587616590        0.4778686331        0.2723358091
 H          5.1337765958        0.1107620395       -1.6990336306
 H          2.6719548388        0.1971048477       -1.4681267496
 H          3.0771724566        1.0053787559        2.6794073108
 H          5.5364044626        0.9267521175        2.4634097613
 H          0.7276504498       -0.1898763330        2.9923139852
  45
        -71.81317717
 C          1.6271018675        0.8739470976        2.6259463563
 P          1.3257009657        0.7401846074        0.8328312046
 P         -1.3016469245        0.2561855047       -0.8621364484
 C         -1.1936254934       -0.1951717210       -2.6251608032
 Cl         1.4797151111       -2.3577593441        1.6392373044
 H          0.6822176833        0.9748022891        3.1522852931
 H         -0.1715474107       -0.0760268737       -2.9736204613
 Cl        -0.9262978756       -2.9771951666       -0.5225894997
 C          0.3974609365        2.1503492210        0.2023817238
 C         -0.7049951558        1.9371674090       -0.5947438085
 C         -1.3613064745        3.0067122128       -1.1698038495
 C         -0.9222780933        4.2958999522       -0.9249060544
 C          0.1727567558        4.5100606551       -0.1106532396
 C          0.8384464825        3.4344984839        0.4504571995
 H         -2.2115252346        2.8272038133       -1.8083048045
 H         -1.4360762028        5.1324992900       -1.3691158421
 H          0.5152349590        5.5137744093        0.0803225530
 H          1.7078230733        3.5871975896        1.0698117085
 Pd         0.1075541886       -1.1696404728        0.3134429338
 H         -1.8459338667        0.4446754851       -3.2124579095
 H          2.2455680318        1.7418055631        2.8360160471
 H         -1.4955012557       -1.2297102344       -2.7616896970
 C         -5.5601116407       -0.2805358055        0.6880941708
 C         -4.9979611608        0.9799930626        0.6555621747
 C         -3.7054574640        1.1470853475        0.1928108077
 C         -2.9805883767        0.0576219895       -0.2372284445
 C         -3.5371387716       -1.2002735102       -0.1923262532
 C         -4.8294822320       -1.3732398370        0.2668915759
 H         -6.5674818409       -0.4122781586        1.0480031614
 H         -5.5648433272        1.8331481750        0.9904970606
 H         -3.2572374922        2.1258437611        0.1751553510
 H         -2.9424676371       -2.0481223045       -0.4880119358
 H         -5.2612989642       -2.3599594753        0.3024439753
 C          5.2137180880        0.2785351017       -1.5024519969
 C          4.4557688055        1.4234219569       -1.6492818521
 C          3.2765103749        1.5650137530       -0.9406566750
 C          2.8622584845        0.5654370195       -0.0889923561
 C          3.6125286691       -0.5793816746        0.0510361265
 C          4.7926670519       -0.7255279705       -0.6535195645
 H          6.1326318254        0.1666480374       -2.0544907072
 H          4.7812354979        2.2054620607       -2.3154976480
 H          2.6743305388        2.4511226479       -1.0527864355
 H          3.2538608291       -1.3656342844        0.6939627495
 H          5.3779352116       -1.6237752634       -0.5443644385
 H          2.1365214968       -0.0170432432        2.9818270538
  45
        -71.81290514
 C          1.6676544662        0.5849439398        2.6731388442
 P          1.3528666770        0.6211108111        0.8776292978
 P         -1.3083752063        0.3575141423       -0.8189399227
 C         -1.2349028990        0.0669512868       -2.6172396827
 Cl         1.4553504285       -2.5087960914        1.4056879968
 H          0.7281158760        0.6558306634        3.2137361203
 H         -1.8772414917        0.7742586490       -3.1339079194
 Cl        -1.0311754893       -2.8881722114       -0.7815066560
 C          0.4526773887        2.1041272474        0.3887635272
 C         -0.6639809349        1.9913745186       -0.4090741639
 C         -1.2994405133        3.1244507801       -0.8756083450
 C         -0.8244135107        4.3749817064       -0.5216897805
 C          0.2853035807        4.4874324502        0.2930404629
 C          0.9292331921        3.3493544517        0.7457185493
 H         -2.1622841316        3.0243995593       -1.5145892336
 H         -1.3216803610        5.2607734544       -0.8812693032
 H          0.6561694712        5.4609640742        0.5685581057
 H          1.8093178815        3.4239801624        1.3643048143
 Pd         0.0830463682       -1.2049390461        0.1946134347
 H         -1.5660687927       -0.9427193232       -2.8428981110
 H          2.3045682923        1.4179563791        2.9563915739
 H         -0.2144842525        0.1913119390       -2.9687099183
 C         -5.5646003041       -0.1949305681        0.7331354725
 C         -4.8781727569       -1.2621720744        0.1899922081
 C         -3.5856854461       -1.0867102659       -0.2680257345
 C         -2.9852600833        0.1492709308       -0.1910288754
 C         -3.6659576712        1.2120758661        0.3607634023
 C         -4.9582059004        1.0420414701        0.8232335778
 H         -6.5719594703       -0.3288342230        1.0923202576
 H         -5.3444800387       -2.2318251145        0.1295118864
 H         -3.0250045355       -1.9192501443       -0.6581849427
 H         -3.1835405884        2.1715718646        0.4376185227
 H         -5.4905033200        1.8746018893        1.2532420124
 C          5.2206484261        0.3075612623       -1.5170765336
 C          4.4819869923        1.4736050457       -1.5539076643
 C          3.3089657498        1.5697826876       -0.8275349228
 C          2.8814078611        0.5040389234       -0.0674524732
 C          3.6127838427       -0.6609698113       -0.0372974631
 C          4.7864810092       -0.7623283417       -0.7601956684
 H          6.1346829818        0.2310217852       -2.0830792328
 H          4.8177873418        2.3076541859       -2.1480356641
 H          2.7220390335        2.4725567191       -0.8548340718
 H          3.2448147456       -1.4961064143        0.5345960731
 H          5.3565851241       -1.6765168971       -0.7370401200
 H          2.1612816760       -0.3443789367        2.9427362717
  45
        -71.81280041
 C          1.2761251081        0.7095593636        2.5807800073
 P          1.2778340745        0.6590933983        0.7589815824
 P         -1.4094783016        0.2683023772       -0.9578662231
 C         -1.6296193207       -0.1296760268       -2.7227646533
 Cl         1.3828279942       -2.5006993388        1.3353850804
 H          1.7359446292       -0.1917110366        2.9761240226
 H         -2.3490977168        0.5496346626       -3.1707840347
 Cl        -1.0814505693       -2.8932131708       -0.8524561424
 C          0.4112751225        2.0847408631        0.0703584847
 C         -0.7008045596        1.9105104297       -0.7248225047
 C         -1.3248655186        3.0021744791       -1.2937755884
 C         -0.8382134112        4.2755249642       -1.0558295958
 C          0.2647044578        4.4519854981       -0.2436556582
 C          0.8902503379        3.3546292120        0.3214392333
 H         -2.1959420988        2.8529990275       -1.9118963030
 H         -1.3253498509        5.1291043885       -1.4977706573
 H          0.6405162801        5.4435212471       -0.0517362953
 H          1.7521248460        3.4805585499        0.9573974044
 Pd         0.0684330925       -1.1953389756        0.0672646437
 H         -1.9920159910       -1.1482368572       -2.8287152914
 H          0.2552006360        0.7752349493        2.9463125544
 H         -0.6806051948       -0.0362793040       -3.2430454245
 C         -5.3217125028       -0.1080538518        1.3528731790
 C         -4.7209563512       -1.2306970193        0.8192775374
 C         -3.5339072418       -1.1085859863        0.1217001650
 C         -2.9550756435        0.1284218825       -0.0455946198
 C         -3.5490295578        1.2484699149        0.4920904776
 C         -4.7358495253        1.1320109510        1.1926115396
 H         -6.2463151298       -0.2003166129        1.8990103559
 H         -5.1714649519       -2.2007443530        0.9510078739
 H         -3.0362156447       -1.9779182643       -0.2740199982
 H         -3.0802707432        2.2102593866        0.3681162573
 H         -5.2013751306        2.0081818292        1.6133006977
 C          5.5328544795        0.3536027554       -0.8585928845
 C          4.9948946233       -0.6784457586       -0.1164196243
 C          3.7016056816       -0.5795443543        0.3616126276
 C          2.9528645858        0.5463287439        0.1054344136
 C          3.4855618930        1.5724765913       -0.6432074256
 C          4.7780789132        1.4782657334       -1.1261628746
 H          6.5405081345        0.2790410289       -1.2337673513
 H          5.5778361421       -1.5622017789        0.0848069676
 H          3.2567475429       -1.3914794265        0.9117184122
 H          2.8878125070        2.4424032135       -0.8560356293
 H          5.1948130149        2.2821382989       -1.7105598527
 H          1.8343736145        1.5738800283        2.9288354270
