171
-217.84842552
P         -1.62422        0.43522       -0.31253
P          1.62250       -0.30072       -0.22148
C         -0.84276        1.48540       -1.54979
C          0.97429       -1.17678       -1.64845
C          0.01493        0.96310       -2.51263
C          0.67885        1.85022       -3.38184
C          0.43897        3.20995       -3.27706
C         -0.43160        3.70688       -2.33112
C         -1.06429        2.83877       -1.46372
C          1.20432       -2.52718       -1.74316
C          0.69975       -3.24329       -2.81115
C         -0.04489       -2.59766       -3.77567
C         -0.29084       -1.23678       -3.69650
C          0.23798       -0.50423       -2.61636
Cl         1.52544        0.42654        2.93391
Cl        -1.70097       -0.16069        2.86491
C         -1.08203       -0.56812       -4.76584
C          1.63976        1.36059       -4.40827
H         -0.61300        4.76707       -2.26292
H         -1.73628        3.22171       -0.71334
H          1.78377       -3.02193       -0.98020
H          0.88987       -4.30096       -2.89195
H          0.94883        3.88267       -3.94605
H         -0.44410       -3.15293       -4.60763
C         -3.45604       -3.42894       -1.79074
C         -2.57992       -3.46827       -0.71306
C         -2.00833       -2.27250       -0.30019
C         -2.30280       -1.09751       -0.94611
C         -3.17311       -1.07389       -2.00840
C         -3.77427       -2.24740       -2.44945
H         -3.92190       -4.33806       -2.12120
H         -1.34245       -2.25335        0.54540
H         -3.38877       -0.12905       -2.47750
C         -4.86106        2.67314        1.94195
C         -3.53693        3.04605        2.13559
C         -2.55887        2.36273        1.42378
C         -2.90294        1.34869        0.56430
C         -4.21702        0.99134        0.38960
C         -5.22793        1.65219        1.07485
H         -5.62861        3.18269        2.49499
H         -1.51642        2.59635        1.55647
H         -4.44721        0.17918       -0.27607
C          4.25688       -3.08298        2.21430
C          2.87758       -3.21282        2.31438
C          2.09011       -2.37014        1.54024
C          2.66548       -1.40938        0.74492
C          4.03060       -1.27665        0.68376
C          4.85765       -2.12059        1.41338
H          4.88359       -3.74999        2.77671
H          1.01746       -2.44691        1.56667
H          4.44774       -0.50297        0.06544
C          3.95723        3.41669       -1.30642
C          2.91548        3.52021       -0.39348
C          2.21554        2.36367       -0.07518
C          2.53249        1.17214       -0.67772
C          3.54690        1.09138       -1.60037
C          4.29032        2.21965       -1.92803
H          4.54005        4.29228       -1.52483
H          1.42142        2.38037        0.65070
H          3.75420        0.13875       -2.05742
Pd        -0.04427        0.07638        1.36837
C         -0.74955       -5.06143       -0.08967
C         -2.25241       -4.76088        0.04724
C         -3.04160       -5.96471       -0.50202
C         -2.61753       -4.57858        1.53299
H         -0.47316       -5.94646        0.48303
H         -0.48886       -5.24049       -1.13195
H         -0.14613       -4.22750        0.26426
H         -2.80311       -6.86977        0.05657
H         -4.11579       -5.79951       -0.42048
H         -2.79784       -6.14991       -1.54800
H         -2.39135       -5.47858        2.10445
H         -2.06802       -3.75196        1.98068
H         -3.68073       -4.36644        1.64337
C         -6.16282       -2.73763       -3.02094
C         -4.80899       -2.26603       -3.58387
C         -4.34572       -3.23354       -4.68908
C         -5.00265       -0.86771       -4.20228
H         -6.09179       -3.74441       -2.61089
H         -6.50003       -2.07573       -2.22380
H         -6.92693       -2.74668       -3.79801
H         -3.36961       -2.94354       -5.07501
H         -4.26576       -4.25374       -4.31591
H         -5.04911       -3.23928       -5.52156
H         -5.36692       -0.15746       -3.46037
H         -4.07003       -0.48598       -4.61513
H         -5.73226       -0.90061       -5.01130
C         -3.61684        3.68278        4.55456
C         -3.19092        4.14515        3.14950
C         -3.93445        5.44108        2.77693
C         -1.67909        4.44179        3.17018
H         -3.11103        2.75508        4.82183
H         -3.36804        4.43269        5.30517
H         -4.69033        3.50372        4.60290
H         -5.01448        5.30270        2.80606
H         -3.68415        6.24613        3.46765
H         -3.66473        5.76328        1.77129
H         -1.10854        3.55969        3.46043
H         -1.33608        4.77123        2.19018
H         -1.44842        5.23210        3.88432
C         -6.89158        0.13233       -0.10796
C         -6.70609        1.26894        0.91724
C         -7.50236        2.49481        0.43368
C         -7.25307        0.79477        2.27589
H         -7.94548       -0.12350       -0.21629
H         -6.52093        0.42660       -1.08963
H         -6.36483       -0.76897        0.20526
H         -7.44748        3.31207        1.15181
H         -7.11067        2.85715       -0.51665
H         -8.55399        2.24581        0.29249
H         -7.19034        1.58348        3.02471
H         -8.29762        0.49495        2.19327
H         -6.68383       -0.05954        2.64184
C          0.75824       -4.01903        3.46334
C          2.26336       -4.27025        3.24303
C          2.95415       -4.22392        4.62046
C          2.45362       -5.65946        2.61202
H          0.19996       -4.13928        2.53747
H          0.34748       -4.72596        4.18394
H          0.58197       -3.01298        3.84400
H          2.48476       -4.92118        5.31426
H          4.00761       -4.49082        4.55168
H          2.88616       -3.22454        5.04986
H          3.51114       -5.88477        2.47644
H          2.02034       -6.43741        3.24039
H          1.97442       -5.70753        1.63438
C          6.84421       -0.86942        0.43175
C          6.38809       -2.01036        1.36245
C          6.97590       -3.33282        0.83733
C          6.92420       -1.72708        2.77777
H          7.93165       -0.80029        0.40744
H          6.50195       -1.03648       -0.58926
H          6.46014        0.09151        0.77369
H          6.72281       -4.16629        1.49155
H          6.58879       -3.55783       -0.15634
H          8.06245       -3.27814        0.77211
H          6.49619       -0.80606        3.17311
H          6.67405       -2.53401        3.46545
H          8.00875       -1.61989        2.77012
C          2.41197        5.94434       -0.82640
C          2.59628        4.87007        0.26247
C          3.75834        5.26389        1.19047
C          1.30018        4.79968        1.09321
H          1.62539        5.65531       -1.52245
H          2.13678        6.90235       -0.38560
H          3.32640        6.09471       -1.39851
H          3.90615        4.50890        1.96246
H          4.69017        5.35964        0.63396
H          3.56066        6.21639        1.68182
H          1.05729        5.77483        1.51502
H          0.45976        4.48543        0.47485
H          1.40057        4.09993        1.92257
C          5.37598        3.26204       -3.95117
C          5.49413        2.16019       -2.88001
C          5.58568        0.79733       -3.59429
C          6.78172        2.37562       -2.06460
H          4.45201        3.15809       -4.51798
H          5.38487        4.25569       -3.50552
H          6.20730        3.20999       -4.65409
H          6.42214        0.78246       -4.29288
H          5.74152       -0.01190       -2.88151
H          4.67803        0.58848       -4.15967
H          6.88433        1.60967       -1.29669
H          7.66239        2.33201       -2.70514
H          6.77446        3.34585       -1.56879
H         -1.86428       -1.22622       -5.14382
H          2.55889        1.94554       -4.38320
H         -0.44523       -0.29464       -5.60799
H         -1.56188        0.33904       -4.39586
H          1.21761        1.44539       -5.41056
H          1.91037        0.31739       -4.24065
