111
-148.55440057
P         -2.52642       -2.10908       -0.35153
P          0.10192       -0.32618       -0.42868
C         -1.68963       -1.78780       -1.93127
C         -0.52994       -1.04459       -1.95380
C         -3.36672       -3.75799       -0.41315
C         -3.02853       -4.59410        0.80105
C         -2.21005       -2.28094       -3.11136
H         -3.12734       -2.84598       -3.09515
C         -1.55925       -2.03742       -4.30854
H         -1.96535       -2.42396       -5.22905
C         -0.39211       -1.29858       -4.32542
H          0.11448       -1.10810       -5.25724
C          0.12154       -0.79585       -3.14357
H          1.02633       -0.20840       -3.13998
Pd        -0.97344       -1.50539        1.25114
Cl        -2.34158       -2.29381        2.83864
Cl         0.64233       -0.83238        2.65617
C         -4.85837       -3.37490       -0.51115
C         -3.98135       -1.00103       -0.07285
H         -3.50157       -5.57796        0.75622
H         -1.94997       -4.73984        0.89627
H         -3.37593       -4.10427        1.71188
H         -5.47005       -4.15882       -0.04090
H         -5.17044       -3.34919       -1.56558
H         -3.77448       -0.43425        0.84501
C         -5.14315       -1.99316        0.14305
C         -4.17496       -0.06092       -1.24345
H         -3.02193       -4.26082       -1.32652
H         -6.07311       -1.56086       -0.25403
H         -5.31827       -2.13201        1.22012
H         -4.34603       -0.62322       -2.16329
H         -5.03431        0.59682       -1.09281
H         -3.29341        0.56563       -1.40049
C         -1.47240        3.94929       -0.26804
C         -1.88549        3.01163        0.71159
C         -1.38920        1.72233        0.63429
C         -0.46807        1.37031       -0.31756
C          0.01250        2.30053       -1.20204
C         -0.43853        3.61064       -1.17795
O         -2.11899        5.21064       -0.35971
C         -2.87871        3.36245        1.83078
H         -1.72764        0.97277        1.32575
H          0.74275        1.98342       -1.92624
C          0.16710        4.62895       -2.15680
C          4.60422       -0.75457        0.08489
C          3.96480        0.45253        0.46625
C          2.59334        0.54868        0.29801
C          1.87988       -0.46213       -0.29038
C          2.50814       -1.58787       -0.75515
C          3.87801       -1.74685       -0.62245
O          5.95622       -0.99057        0.45007
C          4.72070        1.63094        1.09932
H          2.05518        1.41190        0.64950
H          1.90600       -2.35283       -1.21480
C          4.54632       -2.99983       -1.20957
C         -2.72586        4.83173        2.26369
C         -4.31159        3.09946        1.34344
C         -2.61953        2.49357        3.08351
C          0.15735        6.04854       -1.56066
C          1.64210        4.28288       -2.46032
C         -0.62489        4.60057       -3.47270
C         -3.25071        5.22019       -1.22092
H         -3.38555        5.06495        3.09907
H         -1.70132        5.03562        2.57309
H         -2.97052        5.51202        1.45172
H         -4.54803        3.70013        0.46864
H         -4.43975        2.05247        1.07110
H         -5.03769        3.33619        2.12068
H         -2.87221        1.44853        2.91030
H         -1.57358        2.54814        3.38406
H         -3.22690        2.83296        3.92214
H          0.64890        6.75689       -2.22709
H         -0.85671        6.40329       -1.39508
H          0.67765        6.06600       -0.60356
H          2.10791        5.06546       -3.05885
H          2.21168        4.18506       -1.53718
H          1.73364        3.35431       -3.02156
H         -0.59377        3.60705       -3.91948
H         -1.66903        4.85691       -3.30994
H         -0.21255        5.30760       -4.19211
H         -3.41833        4.22748       -1.64074
H         -4.13245        5.53271       -0.66167
H         -3.09028        5.93385       -2.02880
C          6.10815       -1.61762        1.71754
C          6.17484        1.69924        0.59815
C          4.05410        2.97144        0.71602
C          4.69226        1.48447        2.62822
C          5.99074       -2.70322       -1.65233
C          4.53458       -4.12145       -0.16003
C          3.78321       -3.48710       -2.46245
H          6.74177        0.82274        0.90088
H          6.20334        1.75561       -0.48951
H          6.68591        2.57523        0.99682
H          3.95910        3.05646       -0.36583
H          3.06423        3.07433        1.15779
H          4.64962        3.81409        1.06657
H          5.16913        0.55941        2.94381
H          5.21029        2.31304        3.11034
H          3.66584        1.46810        2.99398
H          6.61704       -2.43092       -0.80644
H          6.44125       -3.57363       -2.12867
H          6.01234       -1.87803       -2.36336
H          5.08336       -3.83141        0.73272
H          3.51398       -4.35707        0.14063
H          4.98921       -5.02999       -0.55413
H          2.79612       -3.87146       -2.21009
H          4.32409       -4.29486       -2.95498
H          3.66262       -2.67759       -3.18195
H          6.67461       -0.96724        2.38375
H          5.13183       -1.82580        2.15725
H          6.66075       -2.54967        1.59997
