75
-122.81277769
P          1.87312       -0.53522        0.02318
C          1.70785       -1.50221       -1.48547
C          1.69002       -0.89748       -2.72145
C          1.65895       -1.67080       -3.86680
C          1.64782       -3.04779       -3.76629
C          1.66238       -3.65166       -2.52469
C          1.69464       -2.87439       -1.38073
H          1.72556       -3.33130       -0.40407
H          1.65010       -4.72623       -2.44562
H          1.62016       -3.65214       -4.65824
H          1.63951       -1.19855       -4.83517
H          1.69364        0.17780       -2.78518
C          3.21811       -1.31040        0.93456
C          2.95627       -2.07411        2.04846
C          3.99414       -2.70314        2.71136
C          5.28691       -2.57561        2.24369
C          5.54266       -1.82842        1.11120
C          4.50216       -1.20006        0.45103
H          4.68305       -0.63857       -0.45204
H          6.54980       -1.73830        0.73861
H          6.09674       -3.06457        2.76019
H          3.79281       -3.29106        3.59172
H          1.94117       -2.16990        2.39953
C          2.22076        1.18957       -0.36919
C          3.34664        1.86490        0.04137
C          3.49847        3.21707       -0.23217
C          2.47281        3.88452       -0.90036
C          1.32937        3.22610       -1.29468
C          1.19771        1.85318       -1.03210
O          0.02926        1.15518       -1.38512
C         -1.18253        1.81352       -1.11292
C         -1.34724        3.17752       -1.40210
C         -2.54446        3.79275       -1.11091
C         -3.59268        3.09164       -0.51640
C         -3.40455        1.75303       -0.20197
C         -2.22109        1.12177       -0.50597
P         -1.83811       -0.56954       -0.01713
C         -3.15422       -1.26672        0.99332
C         -2.90372       -1.73888        2.26112
C         -3.93015       -2.29187        3.00436
C         -5.19967       -2.37755        2.46840
C         -5.44383       -1.91691        1.18998
C         -4.41484       -1.36386        0.44913
H         -4.58553       -1.01707       -0.55819
H         -6.43267       -1.99025        0.76801
H         -6.00047       -2.80736        3.04775
H         -3.73848       -2.65319        4.00135
H         -1.90882       -1.66708        2.66964
C         -1.69622       -1.61649       -1.47039
C         -1.72659       -2.98233       -1.30567
C         -1.70539       -3.80862       -2.41503
C         -1.65870       -3.25924       -3.68108
C         -1.62552       -1.88808       -3.84081
C         -1.64341       -1.06527       -2.72993
H         -1.60816        0.00624       -2.83765
H         -1.57988       -1.45899       -4.82819
H         -1.64044       -3.90198       -4.54602
H         -1.72769       -4.87867       -2.29019
H         -1.78145       -3.39489       -0.31047
Pd        -0.00857        0.04735        1.35149
Cl        -1.60304        1.01212        2.61924
Cl         1.56322        0.38315        2.92779
H         -4.17977        1.21181        0.31076
C         -4.86197        3.77978       -0.16076
H         -5.71048        3.09769       -0.22885
H         -5.05637        4.61893       -0.82990
H         -4.81972        4.16406        0.85912
H         -2.66214        4.83860       -1.33344
S          0.00587        4.07187       -2.11948
H          2.56453        4.93755       -1.10004
C          4.70372        3.95181        0.23577
H          4.10249        1.34764        0.60493
H          4.92252        4.80239       -0.41103
H          4.55742        4.32737        1.24926
H          5.58135        3.30405        0.24008
