72
-108.40199918
Cl         1.74307       -0.92941        2.62766
Cl        -0.87077        0.92847        2.76756
P         -1.12411        1.16943       -0.24057
P          2.25659       -0.16003       -0.41013
C          3.28466        1.41329       -0.14670
C          3.66306        1.52263        1.33180
C          4.53731        1.36649       -1.01400
C          3.30238       -1.73772       -0.21588
C          4.09950       -2.00948       -1.49779
C          1.41012       -0.38822       -2.08096
C          1.47297        0.80800       -3.00758
C         -1.15724       -0.14192       -1.50072
C         -0.01397       -0.90907       -1.99187
C         -0.54164       -1.98355       -2.83558
C         -1.98611       -1.87190       -2.88147
C         -2.35959       -0.76277       -2.02431
C          2.44500        2.63234       -0.50504
H          2.77984        1.50230        1.97031
H          4.32412        0.72116        1.65009
H          5.08588        2.30738       -0.94619
H          4.29183        1.20230       -2.06237
C          4.26934       -1.65302        0.96088
H          3.46592       -2.37297       -2.30593
H          4.84993       -2.78225       -1.32286
H          1.99585       -1.18911       -2.54184
H          2.48838        1.18147       -3.13609
H          0.84592        1.61364       -2.63234
H          1.08956        0.55512       -3.99824
H          0.06262       -2.67469       -3.42636
H         -2.66842       -2.51266       -3.44438
Pd         0.52982        0.23136        1.14699
H         -3.37561       -0.42682       -1.80532
C          2.31138       -2.86848        0.01669
H          4.61926       -1.11991       -1.84860
H          3.75866       -1.36664        1.87800
H          4.73632       -2.62252        1.14041
H          5.07409       -0.94583        0.76830
H          1.81932       -2.75357        0.98125
H          1.54899       -2.88753       -0.76342
H          2.81627       -3.83658        0.01835
H          4.18493        2.46134        1.52487
H          5.21495        0.57608       -0.69553
H          2.20996        2.67419       -1.56537
H          1.51480        2.63281        0.06000
H          2.97686        3.55356       -0.26109
C         -2.79370        1.26948        0.45869
C         -3.24189        2.27579        1.27788
C         -4.56528        1.98060        1.60489
C         -4.87303        0.80420        0.96766
O         -3.79501        0.35751        0.25978
H         -2.66991        3.12363        1.61637
H         -5.21706        2.56083        2.23744
H         -5.82578        0.29110        1.01131
C         -0.71237        2.79000       -0.91215
C         -0.57551        3.91306       -0.13404
C         -0.25811        4.96757       -0.99128
C         -0.21515        4.44224       -2.25953
O         -0.48844        3.10443       -2.22481
H         -0.67236        3.95729        0.93889
H         -0.08008        5.99319       -0.71206
H          0.00446        4.99371       -3.16531
Fe        -1.33912       -2.12243       -0.94563
C         -2.23138       -3.91006       -0.46468
C         -3.03453       -2.80410        0.02506
C         -2.19430       -2.00418        0.89523
C         -0.89993       -2.64439        0.99318
C         -0.91607       -3.81999        0.14346
H         -2.57340       -4.70087       -1.13619
H         -4.07553       -2.59466       -0.23043
H         -2.49453       -1.09514        1.42019
H         -0.08316       -2.30881        1.63465
H         -0.10334       -4.53925        0.02094
