171
-217.84669371
P         -1.57601        0.38150       -0.31353
P          1.59406       -0.33727       -0.22759
C         -0.82133        1.41772       -1.57195
C          0.94936       -1.25666       -1.62919
C          0.00090        0.86555       -2.54818
C          0.64120        1.72800       -3.45913
C          0.40911        3.09124       -3.37901
C         -0.42766        3.61579       -2.41671
C         -1.03589        2.77270       -1.50796
C          1.16337       -2.61216       -1.68112
C          0.63983       -3.35798       -2.71845
C         -0.10811       -2.73616       -3.69595
C         -0.33652       -1.37029       -3.66133
C          0.21375       -0.60669       -2.61356
Cl         1.53776        0.35784        2.96724
Cl        -1.64687       -0.32729        2.95651
C         -1.14874       -0.73734       -4.73641
C          1.56520        1.20682       -4.50370
H         -0.60253        4.67814       -2.36901
H         -1.68123        3.17363       -0.74322
H          1.74457       -3.08969       -0.90933
H          0.81479       -4.42047       -2.76194
H          0.89917        3.74549       -4.08028
H         -0.52768       -3.31482       -4.50160
C         -3.66553       -3.29402       -1.91087
C         -2.73290       -3.44602       -0.89283
C         -2.08905       -2.30661       -0.42724
C         -2.35424       -1.08288       -0.98898
C         -3.26366       -0.95134       -2.00994
C         -3.94890       -2.06230       -2.48749
H         -4.20541       -4.15926       -2.24862
H         -1.38650       -2.36020        0.38603
H         -3.44639        0.02984       -2.41447
C         -4.69403        2.63776        2.09767
C         -3.35630        2.97644        2.26266
C         -2.41216        2.30021        1.49895
C         -2.80027        1.31739        0.62190
C         -4.12662        0.99355        0.47882
C         -5.10477        1.65038        1.21094
H         -5.42806        3.15027        2.69051
H         -1.36263        2.51389        1.60446
H         -4.40487        0.20635       -0.19914
C          4.40379       -2.84782        2.31283
C          3.05800       -3.19456        2.26772
C          2.21810       -2.44127        1.45736
C          2.70375       -1.36986        0.74969
C          4.03187       -1.03202        0.82281
C          4.91302       -1.76756        1.60209
H          5.06977       -3.42888        2.92085
H          1.17101       -2.68141        1.38792
H          4.38670       -0.17667        0.27571
C          3.90141        3.37197       -1.38638
C          2.86346        3.49331       -0.47120
C          2.15640        2.34564       -0.13545
C          2.46559        1.14552       -0.72471
C          3.47954        1.04562       -1.64581
C          4.22821        2.16475       -1.99077
H          4.48920        4.24103       -1.61728
H          1.36731        2.37376        0.59568
H          3.69127        0.08136       -2.07617
Pd        -0.04605       -0.04749        1.41205
C         -3.74837       -5.29757        0.45090
C         -2.47945       -4.83108       -0.28369
C         -1.31128       -4.79618        0.71934
C         -2.12639       -5.83097       -1.40094
H         -4.59334       -5.37304       -0.23280
H         -3.59788       -6.27532        0.90820
H         -4.01733       -4.59345        1.23815
H         -0.40454       -4.42927        0.23967
H         -1.54065       -4.15174        1.56751
H         -1.10444       -5.79232        1.11020
H         -1.90218       -6.81402       -0.98721
H         -2.94798       -5.94831       -2.10621
H         -1.25323       -5.49268       -1.95746
C         -6.40757       -2.25833       -2.89241
C         -5.05041       -1.95087       -3.55116
C         -4.78684       -2.95972       -4.68553
C         -5.11125       -0.53682       -4.16169
H         -6.42428       -3.26630       -2.47903
H         -6.60790       -1.56131       -2.07896
H         -7.21995       -2.17793       -3.61443
H         -4.81625       -3.98597       -4.32209
H         -5.53736       -2.86669       -5.47033
H         -3.80881       -2.79261       -5.13465
H         -5.35897        0.20844       -3.40646
H         -4.15981       -0.26329       -4.61609
H         -5.87579       -0.48304       -4.93661
C         -3.67341        5.35741        2.99562
C         -2.96061        4.02877        3.30796
C         -1.44140        4.28164        3.31088
C         -3.37296        3.52872        4.70437
H         -4.75627        5.24804        3.03947
H         -3.38840        6.12966        3.70994
H         -3.41211        5.70821        1.99734
H         -1.17424        5.03425        4.05251
H         -0.89083        3.37225        3.55135
H         -1.11008        4.64335        2.33874
H         -4.45027        3.38087        4.76945
H         -2.89091        2.57703        4.92760
H         -3.08591        4.24292        5.47586
C         -6.73780       -0.24499        1.36918
C         -6.57445        1.24781        1.02493
C         -6.98289        1.48757       -0.44040
C         -7.50987        2.06572        1.93540
H         -7.77694       -0.55755        1.26816
H         -6.13668       -0.87240        0.71197
H         -6.42392       -0.43937        2.39450
H         -8.02586        1.21737       -0.60468
H         -6.85883        2.53670       -0.70804
H         -6.37390        0.89522       -1.12194
H         -7.43895        3.13076        1.71529
H         -8.54819        1.76758        1.79039
H         -7.26648        1.91212        2.98655
C          2.17801       -5.52701        2.08131
C          2.48645       -4.38022        3.05841
C          1.19499       -3.94729        3.78205
C          3.48069       -4.88713        4.12162
H          1.48051       -5.20524        1.30997
H          3.08728       -5.86512        1.58463
H          1.73890       -6.37817        2.60137
H          1.38517       -3.08971        4.42704
H          0.41323       -3.66763        3.07813
H          0.80481       -4.75545        4.40031
H          3.03590       -5.68381        4.71783
H          4.38201       -5.29064        3.66108
H          3.76796       -4.08423        4.80037
C          6.99005       -1.47586        0.23292
C          6.39145       -1.35621        1.64655
C          7.20482       -2.24939        2.60248
C          6.49819        0.10240        2.13168
H          8.04205       -1.19118        0.22824
H          6.91485       -2.50012       -0.13168
H          6.46650       -0.83201       -0.47256
H          8.24863       -1.93670        2.62921
H          6.81638       -2.19051        3.61905
H          7.18169       -3.29085        2.28225
H          7.53980        0.41538        2.20114
H          5.99115        0.78621        1.45191
H          6.04484        0.21376        3.11638
C          3.74300        5.24704        1.08117
C          2.56491        4.85308        0.17324
C          1.28108        4.80256        1.02246
C          2.37487        5.91671       -0.92496
H          4.66780        5.33035        0.51113
H          3.55938        6.20577        1.56582
H          3.89590        4.49850        1.85848
H          0.42889        4.49129        0.41882
H          1.38838        4.10851        1.85576
H          1.05400        5.78366        1.43934
H          2.11594        6.88238       -0.49108
H          3.28197        6.05120       -1.51250
H          1.57503        5.62784       -1.60577
C          6.72026        2.30485       -2.11336
C          5.43690        2.08196       -2.93384
C          5.32853        3.16469       -4.02497
C          5.52536        0.70604       -3.62305
H          7.60532        2.24018       -2.74599
H          6.71718        3.28578       -1.63903
H          6.81069        1.55545       -1.32743
H          6.16126        3.09514       -4.72469
H          4.40481        3.05504       -4.59140
H          5.34163        4.16618       -3.59730
H          4.61881        0.49121       -4.18797
H          6.36436        0.67503       -4.31806
H          5.67499       -0.09095       -2.89526
H         -1.53689        0.23305       -4.42401
H          1.09202        1.22307       -5.48645
H         -2.00089       -1.36434       -4.99890
H         -0.55377       -0.58998       -5.63870
H          1.87211        0.18183       -4.29163
H          2.46821        1.81498       -4.55810
