64
-97.22409668
Cl        -1.21937       -0.27155       -2.88594
Cl         1.95281       -0.64026       -2.87903
P          1.94397       -0.66416        0.37509
C          2.03987       -2.41909        0.97030
C          3.76636       -0.32986        0.21961
P         -1.25932       -0.33816        0.37082
C          1.16420        0.47432        1.57722
C         -0.27958        0.60697        1.60056
C         -0.61644        1.61825        2.59245
C          0.62338        2.11225        3.16680
C          1.72693        1.39860        2.54828
H         -1.62344        1.91936        2.88737
H          0.70926        2.86795        3.95072
Pd         0.34005       -0.67321       -1.32446
H          2.78902        1.53428        2.76117
C         -5.14830        1.62417       -0.98276
C         -4.81592        0.35089       -1.40021
C         -3.63199       -0.22601       -0.97601
C         -2.78475        0.47057       -0.14464
C         -3.12078        1.73577        0.27972
C         -4.30197        2.31769       -0.14091
H         -6.06890        2.07660       -1.31377
H         -5.47448       -0.19253       -2.05768
H         -3.35799       -1.21855       -1.29771
H         -2.45658        2.26799        0.93662
H         -4.56017        3.31116        0.18744
C         -2.38072       -4.43038        1.99092
C         -1.95411       -4.30663        0.68295
C         -1.61703       -3.06188        0.18303
C         -1.70428       -1.95540        0.99611
C         -2.13740       -2.06980        2.29691
C         -2.47570       -3.31404        2.79894
H         -2.64326       -5.40021        2.38112
H         -1.88493       -5.17724        0.05162
H         -1.29243       -2.94762       -0.83881
H         -2.20140       -1.18680        2.91340
H         -2.81141       -3.41065        3.81838
C          4.16261        0.60845       -0.89880
H          4.06611        0.08815        1.18985
C          4.34430       -1.74686        0.06669
H          5.40965       -1.75886        0.34360
C          3.53839       -2.77616        0.90052
H          4.31162       -2.02575       -0.99589
C          1.46201       -2.53574        2.36422
H          1.46205       -3.01449        0.25094
H          3.94096       -2.80847        1.92183
H          3.67291       -3.79295        0.50301
H          0.42095       -2.21190        2.39341
H          1.50694       -3.56348        2.73203
H          2.01544       -1.90571        3.06348
H          5.24850        0.69291       -0.97584
H          3.79610        0.24720       -1.85904
H          3.76600        1.61120       -0.74356
Fe         0.59598        2.34089        1.11790
C          1.22968        2.47038       -0.82173
C          1.90281        3.46684       -0.00879
C          0.88562        4.31561        0.58688
C         -0.41267        3.84630        0.13533
C         -0.19791        2.70437       -0.73420
H          1.69727        1.71486       -1.45658
H          2.98174        3.58442        0.11296
H          1.06671        5.17434        1.23717
H         -1.37593        4.30344        0.37217
H         -0.96170        2.14188       -1.27519
