105
-153.06563802
Cl        -0.58782        3.15015       -2.29054
Pd         0.13668        1.88709       -0.57970
P          1.23270        0.51956        1.03741
N          1.31011       -1.24677        1.04620
C          0.40562       -2.29494        1.27542
C          0.08196       -3.13007        0.17717
C         -0.81143       -4.19935        0.34165
C         -1.18479       -5.02507       -0.86258
C         -2.45397       -5.86839       -0.66367
C         -2.42849       -6.58160        0.69284
C         -2.33419       -5.57052        1.84792
C         -1.35770       -4.44682        1.60380
C         -1.02454       -3.61467        2.67052
C         -0.16079       -2.55891        2.51734
H          0.08465       -1.92752        3.35136
H         -1.46373       -3.80848        3.63455
H         -3.32271       -5.13520        2.03729
H         -3.31073       -7.22686        0.80917
H         -3.33463       -5.21578       -0.71331
H         -1.30467       -4.35813       -1.72592
C          0.52097       -2.64516       -1.15975
C         -0.20736       -1.54839       -1.68464
C          0.30897       -0.83878       -2.76478
C          1.50296       -1.21281       -3.32753
C          2.23640       -2.28884       -2.83188
C          3.56658       -2.59947       -3.47539
C          4.25155       -3.87347       -2.95034
C          4.05320       -4.02981       -1.43869
C          2.55753       -4.10860       -1.09907
C          1.75256       -3.00444       -1.73223
H          2.15190       -5.07231       -1.42846
H          4.49637       -3.16811       -0.92358
H          5.32125       -3.87376       -3.20293
H          4.23012       -1.73969       -3.32439
H          1.89818       -0.65559       -4.16011
H         -0.22872        0.01847       -3.12892
N         -1.35968       -1.15409       -1.01783
P         -1.76443        0.53137       -0.80267
C         -2.49491        0.71502        0.82550
C         -1.77223        0.18767        1.86681
C         -2.23964        0.30198        3.16208
C         -3.43655        0.95288        3.42213
C         -4.16564        1.46026        2.35430
C         -3.69517        1.34305        1.05916
H         -4.26246        1.73552        0.23243
H         -5.10452        1.95164        2.54462
C         -3.94033        1.07304        4.81804
H         -1.66798       -0.09933        3.98103
H         -0.83319       -0.29869        1.65742
C         -2.89058        1.05181       -2.09608
C         -3.21829        0.12785       -3.05930
C         -4.08999        0.47052       -4.07769
C         -4.63468        1.74622       -4.13775
C         -4.29939        2.66226       -3.14948
C         -3.42811        2.31616       -2.13286
H         -3.14713        3.03538       -1.38004
H         -4.72178        3.65197       -3.18385
C         -5.59056        2.11378       -5.21888
H         -4.35232       -0.25215       -4.83130
H         -2.79009       -0.86030       -3.00391
H         -1.60373       -1.65431       -0.17351
H          1.75858       -1.31333        0.14036
C          1.00632        1.17641        2.68474
C          1.36910        0.39732        3.75661
C          1.15997        0.85934        5.04381
C          0.59634        2.10991        5.26078
C          0.24978        2.88680        4.16333
C          0.46239        2.42410        2.87793
H          0.21217        3.03324        2.02479
H         -0.19101        3.85613        4.32194
C          0.33094        2.59484        6.64337
H          1.42892        0.24751        5.88781
H          1.81739       -0.56709        3.57856
C          2.92116        0.86702        0.50975
C          3.82273        1.44660        1.36963
C          5.11539        1.69307        0.94527
C          5.51456        1.35177       -0.34008
C          4.58724        0.77200       -1.19490
C          3.29512        0.52726       -0.76843
H          2.57569        0.07394       -1.43088
H          4.88171        0.51897       -2.19896
C          6.89741        1.64386       -0.80859
H          5.82282        2.15740        1.61089
H          3.51115        1.70998        2.36712
Cl         1.80309        3.36499       -0.23817
H         -2.05684       -6.08252        2.77825
H         -2.57621       -6.59148       -1.48239
H         -1.56439       -7.25694        0.72931
H         -0.34120       -5.67910       -1.11243
H          4.59063       -4.91070       -1.06021
H          2.41215       -4.08328       -0.01166
H          3.42187       -2.66767       -4.56111
H          3.83071       -4.74931       -3.46016
H         -4.59754        1.93678        4.92769
H         -4.50208        0.18320        5.10531
H         -3.11604        1.19348        5.52264
H         -5.39156        1.54770       -6.12991
H         -6.61782        1.91028       -4.91350
H         -5.51616        3.17373       -5.46587
H          0.45855        3.67612        6.71158
H         -0.68909        2.35619        6.94786
H          1.01251        2.13549        7.36069
H          6.95108        2.63561       -1.25958
H          7.60876        1.61064        0.01779
H          7.22222        0.91674       -1.55418
