58
-89.86707294
P          1.63437        0.27851        0.83370
C          2.96947        1.45149        0.56702
C          2.91752        2.69911        1.14577
C          3.93445        3.60785        0.91297
C          4.99319        3.26254        0.09650
C          5.03619        2.01343       -0.49033
C          4.01797        1.10705       -0.25529
H          4.03201        0.13239       -0.71631
H          2.07720        2.96421        1.76707
C          2.21055       -1.38913        0.49580
C          3.29559       -1.87008        1.19273
C          3.74202       -3.16023        0.96619
C          3.09446       -3.96101        0.04615
C          2.00464       -3.47489       -0.64792
C          1.56429       -2.18413       -0.42125
H          0.70777       -1.80013       -0.94807
H          3.78965       -1.23384        1.91027
C          1.10933        0.34658        2.59006
C          0.10042       -0.73928        2.93343
C         -1.32582       -0.39161        2.54136
P         -1.66085       -0.35797        0.73232
C         -3.26393        0.42588        0.53555
C         -3.38409        1.77624        0.77101
C         -4.61193        2.39398        0.61238
C         -5.70933        1.65314        0.21975
C         -5.58310        0.29802       -0.01473
C         -4.35426       -0.31672        0.14406
H         -4.23828       -1.37231       -0.04142
H         -2.51569        2.34307        1.06840
C         -1.65985       -1.99990        0.00167
C         -1.80759       -2.09433       -1.36367
C         -1.79396       -3.33248       -1.97801
C         -1.63373       -4.47254       -1.21605
C         -1.49059       -4.37570        0.15423
C         -1.50500       -3.13485        0.76536
H         -1.39699       -3.05274        1.83402
H         -1.92123       -1.19006       -1.94011
Pd        -0.13935        0.83434       -0.55230
Cl         1.19473        2.26256       -1.66206
Cl        -1.79641        1.12749       -2.05159
H         -2.04285       -1.09649        2.96885
H         -1.59394        0.59356        2.92798
H          0.40173       -1.68051        2.45437
H          0.13590       -0.94071        4.01570
H          2.02513        0.24139        3.17704
H          0.70687        1.33896        2.79922
H          3.89608        4.58604        1.36349
H          5.85784        1.74599       -1.13422
H          4.59257       -3.53893        1.50878
H          1.49170       -4.10084       -1.35937
H         -4.70930        3.45228        0.79058
H         -6.43851       -0.27941       -0.32476
H         -1.90512       -3.40543       -3.04732
H         -1.36526       -5.26627        0.74794
H          5.78400        3.97129       -0.08794
H          3.43887       -4.96721       -0.12892
H         -6.66549        2.13418        0.09297
H         -1.62046       -5.43977       -1.69141
