59
-75.81132494
Cl         1.59778        0.70361        2.26161
P          1.64048       -0.07268       -0.83473
P         -1.67877       -0.08753       -0.77319
C          0.58103        0.32285       -2.29535
H          0.32153        1.38374       -2.26786
H          1.17082        0.15189       -3.20100
C         -0.65756       -0.52972       -2.25140
H         -0.39165       -1.58744       -2.18206
H         -1.27930       -0.40511       -3.14343
C          2.53157       -1.66171       -1.19118
H          2.30175       -1.87153       -2.24457
C          3.10032        1.05331       -0.65403
H          3.24997        1.17956        0.42524
C         -2.99228       -1.34783       -0.44091
H         -3.35754       -1.14165        0.57290
C         -2.80518        1.31030       -1.24676
H         -2.33658        1.81366       -2.10122
C          4.02035       -1.29336       -1.05748
H          4.38258       -1.58706       -0.06498
H          4.62353       -1.87639       -1.76980
C          4.25170        0.22832       -1.25441
H          4.32603        0.45381       -2.32731
H          5.21363        0.54062       -0.81970
C         -4.05580       -0.94699       -1.47625
H         -3.80543       -1.42823       -2.43294
H         -5.04004       -1.35196       -1.19322
C         -4.11710        0.59724       -1.66409
H         -4.94068        1.00012       -1.05849
H         -4.37737        0.84851       -2.70298
C          2.06842       -2.82712       -0.31939
H          2.57193       -3.74508       -0.65329
H          1.00194       -3.00170       -0.51219
C          2.90215        2.41354       -1.31176
H          3.86470        2.94331       -1.33609
H          2.62975        2.26365       -2.36450
C         -2.51928       -2.79418       -0.53556
H         -3.39608       -3.45462       -0.58615
H         -1.99705       -2.94041       -1.48900
C         -3.01641        2.29821       -0.10171
H         -3.86635        2.94984       -0.34915
H         -3.33036        1.73868        0.78955
C          2.29743       -2.63804        1.17422
H          1.84143       -3.43912        1.76072
H          1.87674       -1.69755        1.52828
H          3.35865       -2.62510        1.42589
C          1.86010        3.26520       -0.60641
H          0.89187        2.76635       -0.59280
H          1.72405        4.23551       -1.08937
H          2.13786        3.44919        0.43316
C         -1.63431       -3.20178        0.63176
H         -1.27072       -4.22738        0.53591
H         -2.17313       -3.13045        1.57850
H         -0.76562       -2.54948        0.71622
C         -1.79970        3.15218        0.21445
H         -2.00957        3.89016        0.99210
H         -0.96903        2.54424        0.56965
H         -1.45625        3.69404       -0.66875
Cl        -1.60785        0.12869        2.36014
Pd         0.00588        0.10268        0.79670
