115
-277.94572984
P         -1.85172       -0.66737       -0.10552
P          1.76296        0.41914       -0.19312
C         -2.09286       -2.43738        0.09716
C         -1.02268       -3.26680        0.35241
H         -0.06891       -2.85459        0.63653
C         -1.16163       -4.62780        0.17562
H         -0.31239       -5.28792        0.26102
C         -2.36474       -5.15435       -0.26497
C         -3.46693       -4.32212       -0.38955
H         -4.39504       -4.73392       -0.75183
C         -3.33324       -2.96118       -0.19966
H         -4.16428       -2.29946       -0.38924
C         -3.28503        0.16548        0.61788
C         -3.91791       -0.33579        1.73222
H         -3.55007       -1.23568        2.19735
C         -5.01052        0.32030        2.26192
H         -5.50907       -0.04868        3.14443
C         -5.48017        1.47713        1.67286
C         -4.84234        1.97270        0.55223
H         -5.21481        2.87986        0.10258
C         -3.74858        1.31835        0.02661
H         -3.26257        1.70357       -0.85379
C         -1.67110       -0.17639       -1.85340
C         -1.14840        1.09946       -1.95702
H         -0.83999        1.61100       -1.06098
C         -0.85568        1.66718       -3.19570
C         -1.29936        1.00154       -4.33174
H         -1.11883        1.43536       -5.30101
C         -1.81356       -0.27617       -4.23784
H         -2.02833       -0.82497       -5.13919
C         -1.89821       -0.93500       -3.01095
C          1.50943       -0.12014       -1.91809
C          0.98287       -1.39796       -1.96546
H          0.70979       -1.88399       -1.04408
C          0.63927       -1.99883       -3.17509
C          1.03525       -1.36435       -4.34608
H          0.81443       -1.82380       -5.29497
C          1.55214       -0.08483       -4.30821
H          1.72876        0.43934       -5.23221
C          1.68732        0.60697       -3.10422
C         -1.87393       -2.44873       -3.04145
H         -2.52738       -2.80262       -3.84704
H         -2.33887       -2.83874       -2.13984
C         -0.43188       -3.05483       -3.21178
H         -0.22540       -3.80486       -2.44087
H         -0.35875       -3.60888       -4.15441
C          0.21212        2.72139       -3.30424
H          0.03534        3.49182       -2.54614
H          0.10064        3.24984       -4.25778
C          1.66038        2.11949       -3.17515
H          2.28077        2.45070       -4.01575
H          2.16063        2.53360       -2.30377
C          1.98643        2.19783       -0.04196
C          0.91790        3.02003        0.24272
C          3.20558        2.73055       -0.40405
C          1.03102        4.37856        0.03002
C          3.31370        4.08848       -0.62729
C          2.20741        4.91006       -0.47295
C          3.23583       -0.38219        0.48676
C          3.64061       -1.58972       -0.03527
C          3.96091        0.20511        1.49781
C          4.77051       -2.21193        0.45493
H          3.08538       -2.03866       -0.84124
C          5.08830       -0.41742        1.99093
H          3.64166        1.14992        1.90761
C          5.49772       -1.63221        1.47490
H          5.11421       -3.14879        0.04579
H          5.66862        0.03539        2.77921
Pd        -0.01155       -0.12724        1.25542
Cl        -1.32644       -1.04297        2.83058
Cl         1.43204        0.74289        2.74420
H          4.22065        4.50338       -1.03680
H          4.03661        2.07572       -0.61646
H          0.17787        5.03027        0.13964
H         -0.01649        2.60289        0.57934
C         -3.73417       -7.18735       -0.91597
C         -2.33667       -6.50334       -0.93844
C         -1.81489       -6.23983       -2.38700
F         -4.58512       -6.49947       -1.68972
F         -3.61279       -8.44887       -1.35766
F         -4.17000       -7.18129        0.35244
F         -1.46903       -7.31025       -0.32297
F         -1.87290       -7.36831       -3.10664
F         -2.55355       -5.27238       -2.94866
F         -0.55001       -5.81174       -2.28339
C         -6.13030        3.51500        2.94991
C         -6.64918        2.21053        2.27940
C         -7.72435        2.49036        1.18838
F         -5.26678        3.15608        3.91197
F         -5.49982        4.26306        2.03280
F         -7.16338        4.18651        3.48061
F         -7.21960        1.46293        3.22818
F         -7.23184        3.34767        0.28346
F         -8.01240        1.32151        0.59632
F         -8.82245        2.99765        1.76926
C          7.97415       -1.58781        1.26454
C          6.76786       -2.29245        1.94827
C          6.85769       -2.25101        3.50233
F          9.11861       -2.13878        1.69603
F          7.84336       -1.76466       -0.05891
F          7.93992       -0.27802        1.55127
F          6.78183       -3.57569        1.57704
F          7.89393       -3.00310        3.90437
F          7.01102       -0.98343        3.91013
F          5.71014       -2.74877        3.98713
C          3.52263        6.94896       -1.21303
C          2.13609        6.24383       -1.17338
C          1.57109        5.94185       -2.59782
F          4.00074        6.97821        0.03980
F          4.35788        6.25680       -2.00002
F          3.36675        8.19833       -1.67806
F          1.27730        7.05133       -0.54638
F          0.31586        5.50119       -2.44332
F          1.59154        7.05443       -3.34394
F          2.30306        4.97071       -3.16196
