111
-148.55638036
P         -2.51336       -2.07687       -0.94850
P          0.14363       -0.41030       -0.49069
C         -1.36742       -1.81191       -2.32829
C         -0.19485       -1.12016       -2.11367
C         -3.31097       -3.74548       -1.01516
C         -2.73873       -4.67147        0.03586
C         -1.66607       -2.28475       -3.59009
H         -2.59371       -2.80686       -3.75804
C         -0.78085       -2.07129       -4.63278
H         -1.01291       -2.44065       -5.61836
C          0.39718       -1.38335       -4.41305
H          1.08495       -1.21524       -5.22537
C          0.68903       -0.90180       -3.14951
H          1.59663       -0.34893       -2.96339
Pd        -1.35357       -1.45118        0.94100
Cl        -3.07036       -2.16460        2.19122
Cl        -0.03191       -0.77937        2.63268
C         -4.80570       -3.41794       -0.83872
C         -4.00979       -0.99140       -1.01522
H         -3.21137       -5.65584        0.00100
H         -1.66258       -4.80603       -0.09709
H         -2.89631       -4.26638        1.03647
H         -5.06034       -3.49975        0.22699
H         -5.42666       -4.16955       -1.34950
H         -4.13695       -0.58653       -0.00217
C         -5.14135       -1.98410       -1.34028
C         -3.83684        0.12472       -2.02210
H         -3.12308       -4.14178       -2.02104
H         -5.29381       -2.00276       -2.42822
H         -6.09343       -1.63186       -0.91492
H         -3.64640       -0.27798       -3.01867
H         -4.72943        0.75184       -2.08133
H         -2.99105        0.76374       -1.75985
C         -1.15622        3.95303       -0.29886
C         -1.01531        3.32383       -1.56509
C         -0.60381        2.00150       -1.59825
C         -0.41792        1.29056       -0.44183
C         -0.67972        1.85750        0.77690
C         -1.08939        3.17366        0.88611
O         -1.27698        5.36382       -0.21290
C         -1.29720        4.02380       -2.90535
H         -0.41331        1.51265       -2.53789
H         -0.54380        1.25255        1.65690
C         -1.45375        3.69278        2.28655
C          4.46864       -0.74638        0.89353
C          3.75910        0.46914        1.06507
C          2.44635        0.52530        0.63103
C          1.86118       -0.53658       -0.00693
C          2.57214       -1.67958       -0.26246
C          3.89406       -1.80000        0.13612
O          5.73501       -0.92233        1.51195
C          4.36562        1.70321        1.75085
H          1.85164        1.40444        0.80462
H          2.07313       -2.48483       -0.77354
C          4.67153       -3.07450       -0.22873
C          0.03341        4.31041       -3.62042
C         -2.16186        3.10406       -3.79578
C         -2.07834        5.33733       -2.72718
C         -2.37395        2.66768        2.98718
C         -0.17031        3.86571        3.11616
C         -2.21943        5.02587        2.23604
C         -0.02107        6.01607       -0.12320
H         -0.13764        4.78869       -4.58450
H          0.66482        4.96881       -3.02681
H          0.58727        3.38879       -3.79666
H         -3.09010        2.84173       -3.28939
H         -2.41999        3.60070       -4.73074
H         -1.64390        2.18124       -4.05152
H         -2.99253        5.16669       -2.15970
H         -1.48784        6.07794       -2.19304
H         -2.35099        5.76624       -3.69116
H         -2.71282        3.04507        3.95151
H         -3.25382        2.46169        2.37838
H         -1.86419        1.72337        3.17068
H         -0.40147        4.21130        4.12333
H          0.36834        2.92238        3.20124
H          0.49985        4.59078        2.65818
H         -1.59543        5.82423        1.84149
H         -3.09695        4.94072        1.59605
H         -2.55049        5.32672        3.22973
H         -0.17946        7.09150       -0.04034
H          0.52222        5.66329        0.75203
H          0.57286        5.80728       -1.01153
C          5.66589       -1.46677        2.82394
C          3.74014        3.00206        1.19048
C          4.07896        1.63447        3.25863
C          5.88159        1.79063        1.49949
C          6.17012       -2.77649       -0.41823
C          4.47585       -4.12345        0.87631
C          4.15872       -3.66169       -1.56358
H          3.80739        3.02723        0.10316
H          2.69267        3.10100        1.47137
H          4.25780        3.87917        1.57814
H          4.48067        2.50694        3.77322
H          3.00579        1.59640        3.44456
H          4.52227        0.74718        3.70414
H          6.09319        1.79948        0.43079
H          6.29952        2.69752        1.93582
H          6.40604        0.94426        1.93565
H          6.62686       -2.43323        0.50662
H          6.70912       -3.66703       -0.74058
H          6.31507       -2.00138       -1.17000
H          4.84706       -3.76275        1.83251
H          3.41937       -4.36051        0.99959
H          5.00361       -5.04624        0.63681
H          3.14611       -4.05126       -1.47084
H          4.78992       -4.48766       -1.89068
H          4.16501       -2.90491       -2.34766
H          4.62845       -1.65778        3.10161
H          6.23079       -2.39797        2.86370
H          6.10964       -0.76913        3.53397
