111
-148.55757957
P         -2.55434       -1.94409       -1.17564
P          0.17953       -0.46023       -0.42988
C         -1.32906       -1.58113       -2.46410
C         -0.12951       -0.99045       -2.12691
C         -3.42999       -3.54495       -1.48488
C         -2.93980       -4.63418       -0.55608
C         -1.59737       -1.88666       -3.78308
H         -2.54481       -2.32778       -4.04598
C         -0.65738       -1.60908       -4.76069
H         -0.86699       -1.84759       -5.79065
C          0.54688       -1.02460       -4.41881
H          1.27775       -0.80611       -5.17990
C          0.80921       -0.70986       -3.09765
H          1.73656       -0.23616       -2.81561
Pd        -1.42584       -1.58480        0.80238
Cl        -3.24657       -2.40557        1.82442
Cl        -0.19596       -1.14745        2.62942
C         -4.91112       -3.16231       -1.30635
C         -3.98985       -0.77703       -1.16277
H         -1.86786       -4.80706       -0.67812
H         -3.11020       -4.36132        0.48616
H         -3.45921       -5.57790       -0.73821
H         -5.20232       -3.35928       -0.26535
H         -5.55266       -3.81197       -1.92105
H         -4.13374       -0.48439       -0.11395
C         -5.15816       -1.66200       -1.63628
C         -3.72325        0.43611       -2.02710
H         -3.22993       -3.81342       -2.52985
H         -5.27636       -1.54047       -2.72183
H         -6.10481       -1.31387       -1.19575
H         -3.51453        0.14018       -3.05687
H         -4.58084        1.11271       -2.04222
H         -2.85809        0.99549       -1.66528
C         -1.15399        3.86961        0.06766
C         -0.84971        3.37245       -1.22758
C         -0.42913        2.05819       -1.34260
C         -0.37418        1.23399       -0.24958
C         -0.77294        1.67806        0.98242
C         -1.21813        2.97466        1.16872
O         -1.31083        5.26388        0.27659
C         -0.96150        4.20510       -2.51567
H         -0.12967        1.66373       -2.29806
H         -0.72271        0.99115        1.80969
C         -1.77890        3.34585        2.55149
C          4.54218       -0.70972        0.83823
C          4.03979        0.47450        0.24085
C          2.70296        0.50926       -0.11803
C          1.90087       -0.59202        0.02989
C          2.40664       -1.77248        0.50584
C          3.73460       -1.87530        0.88783
O          5.83870       -0.71657        1.41824
C          4.90391        1.72470        0.01289
H          2.26081        1.41078       -0.50620
H          1.73922       -2.61230        0.59434
C          4.26385       -3.22795        1.38964
C          0.44938        4.55596       -3.01669
C         -1.69396        3.38364       -3.60004
C         -1.77104        5.49717       -2.31031
C         -2.56742        4.66647        2.52764
C         -2.75651        2.24293        3.01701
C         -0.62377        3.45298        3.56050
C         -0.09000        5.91066        0.59579
H          1.02947        3.65407       -3.21029
H          0.40281        5.13021       -3.94161
H          0.99168        5.14751       -2.28140
H         -1.13654        2.49185       -3.88150
H         -2.67603        3.07084       -3.24709
H         -1.83640        3.97511       -4.50409
H         -2.74986        5.27398       -1.88720
H         -1.26206        6.17790       -1.63213
H         -1.91950        6.02202       -3.25374
H         -3.03489        4.86246        3.49231
H         -1.91885        5.50886        2.29912
H         -3.35014        4.63283        1.77060
H         -3.23116        2.51640        3.95887
H         -3.54139        2.08750        2.27732
H         -2.25038        1.29190        3.17398
H         -0.07400        2.51440        3.62375
H          0.08005        4.23130        3.27184
H         -0.99748        3.69044        4.55613
H          0.62227        5.78753       -0.21854
H         -0.27657        6.97307        0.75391
H          0.33546        5.48096        1.50120
C          5.86237       -0.33494        2.78809
C          4.39765        2.52202       -1.21155
C          4.82398        2.63024        1.25137
C          6.36721        1.34287       -0.27436
C          5.75650       -3.40135        1.05480
C          4.04482       -3.32483        2.90719
C          3.51304       -4.39487        0.70868
H          5.08325        3.33340       -1.45498
H          4.31693        1.87831       -2.08712
H          3.42378        2.97289       -1.02580
H          3.79357        2.92831        1.44433
H          5.19165        2.11966        2.13807
H          5.41687        3.53405        1.11323
H          6.42704        0.66840       -1.12788
H          6.96626        2.22560       -0.49665
H          6.82181        0.84319        0.57734
H          6.36725       -2.66198        1.56656
H          6.11331       -4.38659        1.35392
H          5.92484       -3.29007       -0.01583
H          4.57570       -2.53537        3.43353
H          2.98661       -3.22982        3.14971
H          4.39567       -4.28178        3.29254
H          3.97039       -5.35044        0.96433
H          3.53811       -4.29153       -0.37582
H          2.47243       -4.44467        1.02560
H          4.85480       -0.10267        3.13542
H          6.27548       -1.14629        3.38711
H          6.50124        0.53908        2.91349
