111
-148.55936969
P         -2.55433       -1.81272       -1.20025
P          0.21455       -0.51737       -0.39733
C         -1.30036       -1.51800       -2.47555
C         -0.07384       -1.00607       -2.11073
C         -3.53345       -3.34786       -1.52898
C         -3.08881       -4.49110       -0.64307
C         -1.56436       -1.79474       -3.80177
H         -2.53179       -2.17562       -4.08491
C         -0.59180       -1.56557       -4.75979
H         -0.79691       -1.78139       -5.79564
C          0.63950       -1.05867       -4.39087
H          1.39564       -0.87791       -5.13703
C          0.89736       -0.77330       -3.06232
H          1.84698       -0.36083       -2.76049
Pd        -1.43721       -1.61686        0.80692
Cl        -3.30156       -2.32436        1.83479
Cl        -0.24235       -1.33347        2.68299
C         -4.98191       -2.87832       -1.29862
C         -3.91050       -0.55289       -1.16745
H         -2.03356       -4.72718       -0.79961
H         -3.21421       -4.23744        0.41039
H         -3.67152       -5.39502       -0.83523
H         -5.25114       -3.06940       -0.25054
H         -5.68121       -3.48063       -1.89845
H         -4.00926       -0.24178       -0.11875
C         -5.14628       -1.36200       -1.60588
C         -3.58978        0.63272       -2.05192
H         -3.37877       -3.59822       -2.58604
H         -5.29508       -1.22225       -2.68542
H         -6.05403       -0.96163       -1.12940
H         -2.68364        1.14178       -1.71852
H         -3.42530        0.31370       -3.08276
H         -4.40359        1.36148       -2.05442
C         -1.20876        3.78335        0.10227
C         -0.72612        3.33969       -1.15530
C         -0.28109        2.03328       -1.26450
C         -0.34754        1.17288       -0.20077
C         -0.88438        1.57404        0.99325
C         -1.37808        2.85547        1.16170
O         -1.48747        5.16056        0.30878
C         -0.65032        4.26112       -2.38206
H          0.12827        1.66697       -2.18945
H         -0.90429        0.86456        1.80194
C         -2.08648        3.20846        2.47876
C          4.59521       -0.71718        0.82815
C          4.10628        0.39732        0.09620
C          2.76174        0.42220       -0.23391
C          1.93877       -0.63408        0.05904
C          2.43336       -1.76637        0.65041
C          3.76710       -1.85633        1.01537
O          5.87537       -0.65918        1.43655
C          4.97807        1.57693       -0.36717
H          2.33594        1.28518       -0.71782
H          1.75592       -2.58050        0.84488
C          4.26325       -3.18865        1.60227
C         -1.81441        5.26817       -2.38827
C          0.69449        5.00395       -2.37375
C         -0.75286        3.44415       -3.69053
C         -1.04862        3.69066        3.50287
C         -3.16147        4.28839        2.25987
C         -2.80935        1.96657        3.05158
C         -0.39274        5.89878        0.83681
H         -1.79703        5.88172       -3.28867
H         -2.77127        4.74853       -2.34985
H         -1.76355        5.93778       -1.53316
H          1.52468        4.29805       -2.39230
H          0.78598        5.65633       -3.24177
H          0.80082        5.61575       -1.48122
H          0.12401        2.81671       -3.84400
H         -1.63578        2.80556       -3.68213
H         -0.82696        4.10507       -4.55382
H         -0.52507        4.57505        3.14735
H         -1.52288        3.93827        4.45217
H         -0.30394        2.91713        3.68910
H         -3.70776        4.49020        3.18089
H         -2.72201        5.22493        1.92626
H         -3.87770        3.96819        1.50383
H         -3.46263        1.51875        2.30310
H         -2.10547        1.20695        3.38785
H         -3.42172        2.23705        3.91129
H          0.48132        5.25589        0.94871
H         -0.15337        6.72434        0.16666
H         -0.66403        6.31536        1.80660
C          5.83864       -0.10407        2.74085
C          4.67757        1.88372       -1.85155
C          4.64903        2.81897        0.47788
C          6.48204        1.26877       -0.26781
C          5.79854       -3.29031        1.61129
C          3.72810       -3.34358        3.03556
C          3.74063       -4.35818        0.73886
H          4.82627        0.99566       -2.46521
H          3.65402        2.22558       -1.99617
H          5.33629        2.66620       -2.22745
H          5.23684        3.67733        0.15364
H          3.59516        3.08196        0.39031
H          4.86116        2.64588        1.53116
H          7.07761        2.07747       -0.69074
H          6.79098        1.13954        0.76667
H          6.72258        0.35203       -0.80502
H          6.12517       -4.27694        1.93904
H          6.20127       -3.11199        0.61485
H          6.23853       -2.55851        2.28451
H          2.63919       -3.30873        3.05029
H          4.04007       -4.29404        3.46753
H          4.09294       -2.54635        3.68009
H          4.03637       -4.22956       -0.30197
H          2.65530       -4.43495        0.77445
H          4.14372       -5.30860        1.08773
H          5.20182       -0.70711        3.38584
H          6.84864       -0.08138        3.15063
H          5.44139        0.90894        2.70528
