111
-148.55392071
P         -2.51099       -2.16873       -0.30583
P          0.09350       -0.35529       -0.44662
C         -1.50084       -2.16098       -1.80442
C         -0.38499       -1.35539       -1.87206
C         -2.78316       -3.88337        0.32902
C         -1.87708       -4.17954        1.50502
C         -1.84967       -2.95429       -2.87832
H         -2.71490       -3.59363       -2.80861
C         -1.08529       -2.92582       -4.03175
H         -1.35745       -3.54244       -4.87277
C          0.02456       -2.10652       -4.10528
H          0.61929       -2.08184       -5.00358
C          0.37638       -1.32135       -3.02186
H          1.24286       -0.68210       -3.06705
Pd        -1.45927       -0.81357        1.22945
Cl        -3.27151       -0.95726        2.53821
Cl        -0.23653        0.50553        2.57058
C         -4.28549       -3.88729        0.66428
C         -4.26762       -1.64677       -0.58856
H         -0.82395       -4.08240        1.22966
H         -2.06744       -3.48396        2.32468
H         -2.03651       -5.19053        1.88725
H         -4.41261       -3.58410        1.71282
H         -4.69026       -4.90891        0.60054
H         -4.46176       -0.86034        0.15267
C         -5.07757       -2.91507       -0.25403
C         -4.49132       -1.13066       -1.99592
H         -2.57316       -4.56204       -0.50793
H         -5.33386       -3.42816       -1.19092
H         -6.04076       -2.64292        0.20327
H         -3.79608       -0.32731       -2.24557
H         -4.34090       -1.92393       -2.72936
H         -5.50849       -0.75410       -2.12645
C         -0.92188        4.04172       -1.05930
C         -1.94130        3.05590       -1.10352
C         -1.57274        1.72753       -0.96285
C         -0.27492        1.38061       -0.68663
C          0.68339        2.34177       -0.49436
C          0.38586        3.68585       -0.64131
O         -1.19232        5.37000       -1.48214
C         -3.42649        3.40182       -1.29199
H         -2.30156        0.94069       -1.05144
H          1.67383        2.02793       -0.21847
C          1.47632        4.73295       -0.36801
C          4.39394       -1.26328        0.78550
C          3.31763       -1.61193        1.64331
C          2.02759       -1.34356        1.21726
C          1.78903       -0.67317        0.04576
C          2.83216       -0.22092       -0.72172
C          4.14782       -0.46493       -0.36254
O          5.69305       -1.77741        1.03153
C          3.49580       -2.23855        3.03690
H          1.18637       -1.65507        1.81248
H          2.61035        0.32897       -1.61998
C          5.25954        0.14743       -1.23220
C         -4.30499        2.45735       -0.44095
C         -3.73804        4.83508       -0.82333
C         -3.79938        3.24075       -2.77305
C          2.27570        4.98155       -1.65563
C          0.86483        6.05333        0.13539
C          2.44042        4.23617        0.73261
C         -1.00642        5.57021       -2.87746
H         -5.34985        2.76501       -0.47240
H         -4.26250        1.43242       -0.80096
H         -3.98367        2.46439        0.60031
H         -3.42427        4.97688        0.21032
H         -3.22211        5.57313       -1.43206
H         -4.80549        5.04500       -0.88618
H         -3.20790        3.90559       -3.39955
H         -3.61768        2.22013       -3.10873
H         -4.85223        3.46811       -2.93801
H          3.07298        5.70497       -1.48698
H          2.72822        4.05729       -2.01369
H          1.63492        5.36574       -2.44641
H          0.23566        6.51265       -0.62325
H          0.25114        5.87957        1.01866
H          1.64207        6.77079        0.39728
H          3.14242        5.02008        1.01575
H          1.88891        3.94119        1.62495
H          3.02954        3.38422        0.39913
H         -1.96126        5.80558       -3.34697
H         -0.32729        6.40783       -3.03699
H         -0.59019        4.67300       -3.33734
C          5.90443       -3.04438        0.43105
C          4.94837       -2.15337        3.53663
C          2.62283       -1.47161        4.05558
C          3.05082       -3.70976        2.99847
C          5.34310       -0.61691       -2.56365
C          4.93493        1.62976       -1.51955
C          6.63168        0.11847       -0.53637
H          5.61299       -2.75538        2.92159
H          5.30538       -1.12455        3.50561
H          5.03295       -2.51240        4.56204
H          2.78757       -1.84278        5.06669
H          2.86294       -0.40891        4.04358
H          1.56082       -1.57662        3.84086
H          3.65397       -4.28469        2.29826
H          3.14614       -4.17090        3.98116
H          2.00976       -3.79434        2.68818
H          6.11093       -0.19167       -3.20945
H          5.58520       -1.66535       -2.40015
H          4.39418       -0.57438       -3.09745
H          4.02070        1.74071       -2.09985
H          4.81586        2.18252       -0.58864
H          5.73766        2.09996       -2.08703
H          6.98039       -0.90165       -0.39431
H          6.57563        0.59180        0.44328
H          7.38257        0.64392       -1.12599
H          6.90909       -3.39299        0.67120
H          5.17520       -3.76159        0.80444
H          5.79906       -2.96755       -0.64994
