72
-98.09850174
Fe         0.00298        2.81244        0.01815
P          1.84271       -0.06625        0.05651
P         -1.86500       -0.06598        0.00258
C          1.40819        1.57021        0.74734
C          0.38916        1.82427        1.75044
C          0.35519        3.25313        2.00910
C          1.36383        3.88399        1.17787
C          2.01626        2.84430        0.40041
C         -1.44717        1.59110       -0.66504
C         -2.02067        2.85973       -0.24316
C         -1.39892        3.92079       -1.01727
C         -0.44463        3.31041       -1.92456
C         -0.47950        1.87395       -1.71044
C          3.27944       -0.73714        1.01465
C          4.47959       -0.20342        0.21537
C          2.68016        0.12591       -1.59027
C          4.16972       -0.15679       -1.30309
C         -3.21112       -0.76446       -1.06794
C         -4.42973        0.03468       -0.57496
C         -2.91764        0.15500        1.52202
C         -4.33394        0.38313        0.94067
H         -0.24239        1.06961        2.21975
H         -0.30224        3.76043        2.71870
H          1.60025        4.94982        1.15130
H          2.83442        2.98655       -0.30876
H         -2.78949        2.98914        0.52116
H          0.08768        1.13084       -2.27031
Cl         1.44513       -3.18272        0.37272
Cl        -1.58947       -3.09808        0.21258
Pd        -0.00215       -1.49475       -0.04771
H          3.23246       -1.82949        0.94158
C          3.28076       -0.30966        2.47743
H          2.52945        1.16845       -1.89436
C          2.08522       -0.82216       -2.62499
H          5.37590       -0.80982        0.41864
H          4.71960        0.80734        0.57466
H          4.80674        0.58330       -1.80976
H          4.43664       -1.12385       -1.75021
H         -1.62199        4.98733       -0.94070
H          0.17397        3.83532       -2.65619
H          4.24482       -0.58111        2.92968
H          2.25417       -1.85585       -2.29410
H         -3.32100       -1.82281       -0.80515
C         -2.94609       -0.61805       -2.56407
H         -2.55210        1.04811        2.04252
C         -2.88054       -1.04956        2.46131
H         -5.36098       -0.50918       -0.79722
H         -4.48934        0.96198       -1.16364
H         -4.65931        1.41945        1.11513
H         -5.04826       -0.23458        1.50298
H         -3.89300       -0.74448       -3.10724
H         -3.13137       -1.94871        1.88371
C          2.14212       -0.92019        3.27425
H          1.18005       -0.61699        2.86474
H          2.17588       -2.01080        3.24204
H          2.16287       -0.61751        4.32360
C          2.64771       -0.61102       -4.02274
H          3.72796       -0.76432       -4.04544
H          2.20438       -1.29518       -4.74987
H          2.46024        0.40616       -4.37203
C         -1.91832       -1.60450       -3.09244
H         -1.73458       -1.47564       -4.16149
H         -0.96442       -1.49190       -2.58055
H         -2.24258       -2.63485       -2.93471
C         -1.55935       -1.24230        3.18385
H         -1.58892       -2.09226        3.86949
H         -0.75136       -1.43008        2.47915
H         -1.29267       -0.35982        3.76813
H          3.23660        0.78626        2.52668
H          0.99594       -0.70571       -2.64203
H         -2.63254        0.41348       -2.76966
H         -3.68811       -0.94809        3.19983
