58
-89.86603824
P          1.72221        0.06956        0.77926
C          2.29915        1.77535        0.73350
C          2.43483        2.38141       -0.49475
C          2.87898        3.68738       -0.58046
C          3.18908        4.38175        0.57150
C          3.05836        3.77148        1.80330
C          2.61402        2.46401        1.88393
H          2.51595        1.98148        2.84216
H          2.19427        1.82094       -1.38348
C          2.95296       -1.03954        0.09354
C          2.58002       -2.31640       -0.25875
C          3.51641       -3.18030       -0.79804
C          4.81868       -2.75736       -0.97890
C          5.18716       -1.47460       -0.62342
C          4.24871       -0.61268       -0.08514
H          4.51847        0.39383        0.19142
H          1.55683       -2.62837       -0.12103
C          1.34557       -0.46516        2.49389
C          0.12683        0.23776        3.08155
C         -1.18519       -0.44083        2.73019
P         -1.65467       -0.27935        0.95523
C         -2.80248        1.09617        0.80683
C         -2.39382        2.27970        0.23402
C         -3.27814        3.33885        0.13812
C         -4.56379        3.20852        0.62466
C         -4.96510        2.02519        1.21234
C         -4.07849        0.96738        1.30721
H         -4.37436        0.04223        1.77639
H         -1.38385        2.37712       -0.13024
C         -2.33705       -1.84587        0.39032
C         -3.56661       -1.91868       -0.22278
C         -4.03812       -3.13635       -0.67776
C         -3.27134       -4.27390       -0.51979
C         -2.03344       -4.19604        0.08710
C         -1.56431       -2.97591        0.54050
H         -0.59414       -2.89787        1.00533
H         -4.14304       -1.02008       -0.36679
Pd        -0.05233        0.03950       -0.69906
Cl         1.40260       -0.02935       -2.42116
Cl        -1.74359       -0.24215       -2.16398
H         -1.14203       -1.50537        2.96799
H         -2.01685       -0.02690        3.30593
H          0.22451        0.28759        4.17750
H          0.10419        1.28279        2.74281
H          1.20651       -1.54775        2.48791
H          2.24974       -0.27092        3.07582
H          2.98302        4.15971       -1.54342
H          3.30320        4.31300        2.70232
H          3.22771       -4.17941       -1.08028
H          6.20244       -1.14364       -0.76810
H         -2.96271        4.26416       -0.31534
H         -5.96638        1.92534        1.59804
H         -4.99902       -3.19486       -1.16207
H         -1.43102       -5.08194        0.20339
H          3.53541        5.40055        0.50921
H          5.54830       -3.42884       -1.40136
H         -5.25386        4.03303        0.54904
H         -3.63684       -5.22295       -0.87675
