75
-122.81885862
P          1.83224       -0.56691       -0.01225
C          1.69602       -1.56247       -1.50282
C          1.70492       -2.93308       -1.38045
C          1.68752       -3.72442       -2.51508
C          1.66606       -3.13583       -3.76402
C          1.65533       -1.76010       -3.88154
C          1.67024       -0.97240       -2.74556
H          1.65372        0.10219       -2.82113
H          1.63033       -1.30011       -4.85566
H          1.65031       -3.75132       -4.64860
H          1.69232       -4.79803       -2.42311
H          1.73965       -3.37701       -0.39790
C          3.15942       -1.29786        0.96027
C          4.42406       -1.33107        0.41783
C          5.46254       -1.90782        1.12666
C          5.22394       -2.45609        2.37106
C          3.95062       -2.43429        2.90441
C          2.91468       -1.85744        2.19312
H          1.91641       -1.83730        2.59911
H          3.76330       -2.86461        3.87447
H          6.03204       -2.90468        2.92553
H          6.45443       -1.93126        0.70612
H          4.59078       -0.91537       -0.56374
C          2.21346        1.14212       -0.43269
C          3.37123        1.78936       -0.06941
C          3.54257        3.13847       -0.34708
C          2.50460        3.83160       -0.96892
C          1.33250        3.19957       -1.32025
C          1.18510        1.82752       -1.06140
O         -0.00023        1.14760       -1.38562
C         -1.19191        1.81901       -1.06729
C         -1.34833        3.18962       -1.32852
C         -2.52738        3.81309       -0.98524
C         -3.56361        3.11286       -0.36848
C         -3.38295        1.76580       -0.08698
C         -2.21798        1.12703       -0.44213
P         -1.82759       -0.57707       -0.01042
C         -3.15302       -1.30152        0.96966
C         -4.41268       -1.36042        0.41783
C         -5.45173       -1.92933        1.13216
C         -5.21869       -2.44374        2.39196
C         -3.95036       -2.39578        2.93537
C         -2.91388       -1.82676        2.21863
H         -1.91993       -1.78533        2.63333
H         -3.76747       -2.79916        3.91779
H         -6.02728       -2.88588        2.95086
H         -6.43975       -1.97257        0.70416
H         -4.57507       -0.96977       -0.57472
C         -1.68924       -1.58259       -1.49396
C         -1.64646       -0.99961       -2.73954
C         -1.63011       -1.79366       -3.87111
C         -1.65581       -3.16855       -3.74630
C         -1.69364       -3.75008       -2.49444
C         -1.71274       -2.95239       -1.36430
H         -1.76026       -3.39061       -0.37973
H         -1.71026       -4.82306       -2.39675
H         -1.63891       -3.78898       -4.62740
H         -1.59184       -1.33927       -4.84743
H         -1.61714        0.07430       -2.82058
Pd         0.00098       -0.05010        1.40565
Cl        -1.59455        0.93094        2.66473
Cl         1.60583        0.88844        2.68512
H         -4.14790        1.22337        0.43969
C         -4.81121        3.80914        0.04356
H         -4.73111        4.16859        1.07020
H         -5.67089        3.14011       -0.01298
H         -5.01511        4.66643       -0.59923
H         -2.63984        4.86417       -1.18453
S         -0.00888        4.07731       -2.08065
H          2.61023        4.88376       -1.16620
C          4.78192        3.84443        0.07337
H          4.13750        1.25191        0.46040
H          4.68809        4.21227        1.09587
H          5.64558        3.17940        0.03256
H          4.98896        4.69720       -0.57443
