171
-217.84407429
P         -1.54946        0.37345       -0.42253
P          1.64407       -0.35062       -0.34572
C         -0.84158        1.39106       -1.72003
C          1.02923       -1.25790       -1.76983
C         -0.00560        0.83296       -2.67934
C          0.60115        1.68215       -3.62421
C          0.31313        3.03683       -3.60256
C         -0.54680        3.56505       -2.66344
C         -1.11478        2.73715       -1.71525
C          1.31426       -2.59927       -1.85253
C          0.79697       -3.35865       -2.88350
C         -0.03113       -2.76962       -3.81485
C         -0.32901       -1.41880       -3.75236
C          0.23418       -0.63531       -2.72576
Cl         1.54717        0.16660        2.88974
Cl        -1.61336       -0.30714        2.83757
C         -1.24738       -0.83143       -4.76684
C          1.51979        1.13933       -4.66186
H         -0.77116        4.61923       -2.66546
H         -1.77851        3.14289       -0.96908
H          1.94438       -3.05690       -1.10714
H          1.02961       -4.40884       -2.95150
H          0.76881        3.68038       -4.33606
H         -0.45901       -3.36193       -4.60612
C         -3.75550       -3.29999       -1.85993
C         -2.77713       -3.44835       -0.88379
C         -2.08051       -2.31414       -0.48859
C         -2.37077       -1.09149       -1.04049
C         -3.34016       -0.96023       -2.00387
C         -4.05672       -2.07072       -2.43413
H         -4.31484       -4.16027       -2.17529
H         -1.31086       -2.37910        0.26098
H         -3.54049        0.01968       -2.40316
C         -4.46997        2.74750        2.12127
C         -3.11912        3.07416        2.17005
C         -2.24681        2.35920        1.36025
C         -2.70814        1.34685        0.55605
C         -4.04337        1.03194        0.52859
C         -4.95531        1.73074        1.30671
H         -5.15844        3.29019        2.73976
H         -1.19181        2.57521        1.37884
H         -4.37846        0.22162       -0.09443
C          4.19074       -2.93176        2.38418
C          2.85494       -3.26414        2.19509
C          2.11252       -2.48679        1.31667
C          2.68207       -1.41448        0.67477
C          4.00163       -1.09575        0.87979
C          4.78752       -1.85729        1.73615
H          4.78359       -3.50796        3.06925
H          1.06770       -2.69741        1.16026
H          4.40598       -0.23090        0.38517
C          3.89919        3.47325       -1.22342
C          2.82755        3.50676       -0.33895
C          2.12911        2.32654       -0.12369
C          2.50587        1.16613       -0.75290
C          3.57190        1.14723       -1.61845
C          4.29642        2.30684       -1.86834
H          4.44370        4.37880       -1.40804
H          1.28646        2.30845        0.54574
H          3.84749        0.21803       -2.08877
Pd        -0.01420       -0.03797        1.28164
C         -2.34627       -4.67236        1.27432
C         -2.43425       -4.80837       -0.25917
C         -1.08188       -5.27989       -0.81637
C         -3.50318       -5.86971       -0.58479
H         -2.14913       -5.63759        1.74044
H         -1.54718       -3.99598        1.57249
H         -3.28068       -4.28581        1.68049
H         -0.30219       -4.54873       -0.60845
H         -0.78412       -6.23095       -0.37529
H         -1.13634       -5.40968       -1.89699
H         -3.27740       -6.81145       -0.08458
H         -4.48920       -5.54454       -0.25315
H         -3.54688       -6.07210       -1.65459
C         -4.99113       -2.97043       -4.59206
C         -5.20392       -1.95988       -3.44862
C         -5.28870       -0.54686       -4.05895
C         -6.53163       -2.26374       -2.73092
H         -5.77824       -2.88125       -5.34064
H         -4.03605       -2.80074       -5.08751
H         -5.00002       -3.99602       -4.22572
H         -5.50170        0.20037       -3.29499
H         -4.35724       -0.27661       -4.55534
H         -6.08633       -0.49308       -4.79976
H         -6.53276       -3.27138       -2.31644
H         -6.69450       -1.56558       -1.91005
H         -7.37461       -2.18196       -3.41681
C         -1.84279        5.23034        2.28139
C         -2.55436        4.14738        3.11144
C         -1.54811        3.48823        4.07460
C         -3.66238        4.81873        3.94490
H         -2.53106        5.68693        1.57039
H         -1.44572        6.01718        2.92249
H         -1.01173        4.80893        1.71946
H         -0.71613        3.03914        3.53366
H         -1.13746        4.21833        4.77161
H         -2.02979        2.70019        4.65289
H         -4.39330        5.30986        3.30278
H         -4.18127        4.08978        4.56708
H         -3.24266        5.57657        4.60635
C         -6.59022       -0.13386        1.67072
C         -6.43879        1.33978        1.24791
C         -6.95255        1.51912       -0.19287
C         -7.29682        2.20932        2.18642
H         -7.63695       -0.43716        1.66150
H         -6.04588       -0.79739        0.99964
H         -6.20223       -0.28642        2.67759
H         -8.00815        1.25826       -0.26662
H         -6.83602        2.55297       -0.51733
H         -6.40382        0.88687       -0.88970
H         -7.23178        3.26260        1.91413
H         -8.34586        1.91876        2.13083
H         -6.97890        2.09886        3.22299
C          1.57876       -5.41049        1.96026
C          2.16238       -4.39903        2.96223
C          1.02866       -3.80256        3.81856
C          3.14052       -5.14166        3.89221
H          0.83999       -4.93949        1.31538
H          2.36320       -5.82267        1.32585
H          1.09095       -6.23683        2.47701
H          0.51824       -4.57868        4.38829
H          1.42350       -3.06931        4.52137
H          0.28652       -3.29957        3.20009
H          2.63301       -5.94756        4.42228
H          3.96042       -5.58364        3.32633
H          3.55860       -4.46828        4.64019
C          6.74668       -0.34710        1.14365
C          6.25452       -1.50996        2.02626
C          7.14087       -2.73786        1.74494
C          6.38926       -1.09659        3.50275
H          7.79494       -0.12521        1.34324
H          6.65668       -0.59936        0.08771
H          6.17661        0.56201        1.33431
H          8.19233       -2.50590        1.91375
H          6.87903       -3.57523        2.39039
H          7.02924       -3.06369        0.71093
H          7.41760       -0.82511        3.74060
H          5.75328       -0.23871        3.72047
H          6.09445       -1.90758        4.16778
C          1.07733        5.28748       -0.24207
C          2.39013        4.79003        0.38259
C          3.45077        5.90140        0.26012
C          2.17327        4.49784        1.88137
H          0.72114        6.18890        0.25624
H          1.21762        5.51705       -1.29804
H          0.30100        4.52777       -0.16607
H          3.15423        6.78268        0.82885
H          4.41370        5.56557        0.64471
H          3.58077        6.21196       -0.77623
H          1.90983        5.40707        2.42143
H          1.37030        3.77970        2.03913
H          3.07930        4.08987        2.32874
C          5.07520        1.82794       -4.20853
C          5.51825        2.25650       -2.79931
C          6.53432        1.24019       -2.24722
C          6.21422        3.62761       -2.90552
H          4.59413        0.85082       -4.19181
H          4.37074        2.54807       -4.62296
H          5.92848        1.76770       -4.88392
H          7.42250        1.19425       -2.87717
H          6.84859        1.52050       -1.24221
H          6.10736        0.23911       -2.20157
H          6.56278        3.96743       -1.93038
H          7.08139        3.57052       -3.56339
H          5.54016        4.37972       -3.31510
H         -1.54424        0.18386       -4.50092
H          2.08433        0.28724       -4.28046
H         -2.15652       -1.42708       -4.85157
H         -0.77616       -0.80098       -5.75020
H          2.23493        1.89557       -4.98597
H          0.96530        0.81125       -5.54163
