59
-75.81211117
Cl         1.62585        0.67950        2.27368
P          1.62210       -0.07052       -0.84500
P         -1.65563       -0.08548       -0.77559
C          0.57894        0.32436       -2.31485
H          0.31922        1.38545       -2.29208
H          1.17251        0.14875       -3.21729
C         -0.65698       -0.52921       -2.26727
H         -0.39085       -1.58734       -2.20318
H         -1.28679       -0.40060       -3.15325
C          2.51491       -1.66073       -1.19733
H          2.29610       -1.86454       -2.25427
C          3.08376        1.05383       -0.65843
H          3.22610        1.18382        0.42135
C         -2.96891       -1.34573       -0.43466
H         -3.33596       -1.13228        0.57695
C         -2.78985        1.30865       -1.24719
H         -2.32180        1.81797       -2.09843
C          4.00263       -1.29521       -1.04739
H          4.35236       -1.58544       -0.04941
H          4.61309       -1.88202       -1.75031
C          4.23854        0.22524       -1.24699
H          4.32191        0.44725       -2.31993
H          5.19748        0.53712       -0.80549
C         -4.03224       -0.95378       -1.47342
H         -3.78031       -1.44136       -2.42646
H         -5.01603       -1.35845       -1.18846
C         -4.09596        0.58911       -1.67183
H         -4.92628        0.99382       -1.07676
H         -4.34725        0.83259       -2.71476
C          2.04196       -2.83195       -0.33852
H          2.54352       -3.74892       -0.67804
H          0.97596       -3.00031       -0.53920
C          2.89341        2.41235       -1.32203
H          3.85724        2.94001       -1.34061
H          2.62885        2.25972       -2.37635
C         -2.49457       -2.79246       -0.51671
H         -3.37060       -3.45383       -0.56831
H         -1.96618       -2.94491       -1.46572
C         -3.01180        2.29255       -0.10061
H         -3.86800        2.93604       -0.34770
H         -3.32097        1.72863        0.78948
C          2.26363       -2.65840        1.15798
H          1.84533       -1.71960        1.51903
H          3.32352       -2.65294        1.41547
H          1.80101       -3.46318        1.73415
C          1.84785        3.26852       -0.62744
H          0.87804        2.77254       -0.62098
H          1.71866        4.23809       -1.11376
H          2.11748        3.45423        0.41398
C         -1.61701       -3.19135        0.65917
H         -1.24978       -4.21639        0.57162
H         -2.16291       -3.11632        1.60155
H         -0.75103       -2.53581        0.74652
C         -1.80421        3.15869        0.21747
H         -1.46623        3.70559       -0.66473
H         -2.02223        3.89326        0.99610
H         -0.96710        2.55920        0.57190
Cl        -1.66093        0.09231        2.31215
Pd         0.01607        0.12507        0.81810
