171
-217.84542163
P         -1.63751        0.35700       -0.38013
P          1.67002       -0.29046       -0.33400
C         -0.91220        1.45095       -1.60525
C          1.03275       -1.15983       -1.76560
C         -0.03284        0.96195       -2.56499
C          0.59975        1.87634       -3.42841
C          0.30031        3.22500       -3.32769
C         -0.59626        3.68590       -2.38743
C         -1.19437        2.79296       -1.52076
C          1.32212       -2.49518       -1.90084
C          0.80841       -3.21043       -2.96493
C         -0.01133       -2.58127       -3.87810
C         -0.31467       -1.23516       -3.75830
C          0.23231       -0.49860       -2.68999
Cl         1.53361        0.43767        2.82276
Cl        -1.55394       -0.45326        2.82983
C         -1.19992       -0.59233       -4.76812
C          1.56883        1.41573       -4.45951
H         -0.82471        4.73723       -2.32320
H         -1.88650        3.14588       -0.77369
H          1.95251       -2.97888       -1.17171
H          1.04408       -4.25599       -3.07796
H          0.77990        3.91805       -3.99821
H         -0.42638       -3.13797       -4.70136
C         -3.60003       -3.39967       -1.94971
C         -3.94785       -2.17956       -2.51669
C         -3.30839       -1.03834       -2.04625
C         -2.36491       -1.13292       -1.05312
C         -2.03289       -2.34631       -0.50393
C         -2.65430       -3.50997       -0.93741
H         -4.09571       -4.28445       -2.30184
H         -3.54895       -0.06445       -2.43771
H         -1.29249       -2.38011        0.27654
C         -4.67876        2.48434        2.22898
C         -5.10938        1.46552        1.38797
C         -4.16111        0.83699        0.59130
C         -2.84615        1.22882        0.62817
C         -2.44006        2.24250        1.45977
C         -3.34895        2.88433        2.28982
H         -5.40274        2.96758        2.85761
H         -4.43966        0.02584       -0.05715
H         -1.40007        2.52210        1.47615
C          4.20164       -2.88368        2.40248
C          4.80753       -1.83366        1.72231
C          4.02258       -1.07962        0.86042
C          2.69166       -1.36763        0.68827
C          2.11131       -2.41255        1.36442
C          2.85353       -3.18540        2.24762
H          4.79080       -3.47277        3.07834
H          4.44978       -0.24550        0.33245
H          1.06129       -2.60839        1.22668
C          3.94790        3.49215       -1.30682
C          2.83913        3.56774       -0.47300
C          2.15374        2.39206       -0.19565
C          2.55390        1.20604       -0.75799
C          3.64060        1.14998       -1.59579
C          4.37526        2.29646       -1.87323
H          4.49703        4.39317       -1.50488
H          1.30445        2.38963        0.46531
H          3.92402        0.20225       -2.02272
Pd        -0.01906        0.00243        1.25357
C         -4.69330       -3.05376       -4.75426
C         -5.05282       -2.12192       -3.58138
C         -5.23962       -0.69386       -4.13019
C         -6.38079       -2.57872       -2.94976
H         -4.61933       -4.09105       -4.43039
H         -5.45104       -3.00479       -5.53610
H         -3.73760       -2.77336       -5.19477
H         -5.54277       -0.00623       -3.34089
H         -4.31926       -0.32071       -4.57802
H         -6.01285       -0.67292       -4.89804
H         -7.19304       -2.53738       -3.67523
H         -6.31180       -3.60221       -2.58279
H         -6.64698       -1.93993       -2.10816
C         -2.23914       -4.73370        1.22384
C         -2.26918       -4.85866       -0.31287
C         -0.87937       -5.26276       -0.82924
C         -3.27692       -5.96484       -0.68205
H         -3.20448       -4.39718        1.60115
H         -2.01095       -5.69280        1.68844
H         -1.48504       -4.02200        1.55494
H         -0.89509       -5.39066       -1.91127
H         -0.14175       -4.49643       -0.59585
H         -0.55066       -6.20087       -0.38245
H         -3.02588       -6.89917       -0.18000
H         -4.28756       -5.68710       -0.38305
H         -3.27451       -6.16106       -1.75388
C         -6.97279        0.52151        2.77079
C         -6.58689        1.04859        1.37700
C         -6.85541       -0.06172        0.34132
C         -7.45967        2.26592        1.01969
H         -6.34877       -0.32860        3.04595
H         -6.84562        1.28957        3.53282
H         -8.01344        0.19842        2.79199
H         -6.59321        0.26951       -0.66335
H         -6.28259       -0.96025        0.57026
H         -7.90984       -0.33742        0.33356
H         -7.17893        2.66769        0.04623
H         -8.51375        1.99168        0.98033
H         -7.35105        3.06248        1.75470
C         -2.41901        5.20429        2.38037
C         -2.85604        3.99604        3.22626
C         -1.66085        3.47808        4.05162
C         -3.95779        4.44804        4.20389
H         -1.63044        4.92753        1.68261
H         -3.25593        5.59089        1.79911
H         -2.04346        6.00950        3.01152
H         -0.81478        3.22208        3.41561
H         -1.32213        4.23099        4.76291
H         -1.93860        2.58480        4.61057
H         -4.80476        4.87997        3.67134
H         -4.31546        3.61072        4.80290
H         -3.57965        5.20778        4.88785
C          7.02647       -1.75259        0.56862
C          6.29207       -1.48012        1.89279
C          6.95468       -2.31545        3.00526
C          6.42510        0.01016        2.26357
H          6.94793       -2.80424        0.29361
H          6.60080       -1.16417       -0.24248
H          8.08389       -1.50088        0.64792
H          7.99846       -2.02903        3.13373
H          6.45029       -2.16544        3.95968
H          6.93429       -3.37830        2.76537
H          6.04258        0.65500        1.47355
H          5.86778        0.23043        3.17378
H          7.46786        0.27837        2.43224
C          1.57913       -5.33737        2.07814
C          2.15136       -4.29072        3.04919
C          1.00812       -3.66411        3.87152
C          3.11758       -4.99854        4.01814
H          0.85407       -4.88688        1.40393
H          2.37140       -5.77699        1.47255
H          1.07872       -6.14100        2.61812
H          0.49624       -4.41854        4.46841
H          1.39450       -2.90150        4.54724
H          0.26791       -3.19014        3.22842
H          3.93515       -5.47615        3.47850
H          3.53936       -4.29439        4.73509
H          2.59917       -5.77319        4.58310
C          3.54382        5.38847        1.09402
C          2.43060        4.91195        0.14440
C          1.11987        4.79000        0.94553
C          2.21980        5.94974       -0.97391
H          3.27901        6.33659        1.56169
H          3.71352        4.65717        1.88413
H          4.48353        5.52853        0.56077
H          0.30966        4.43273        0.31092
H          1.23256        4.10230        1.78336
H          0.82323        5.75679        1.35189
H          1.88928        6.90357       -0.56309
H          3.13903        6.12910       -1.52990
H          1.46411        5.60656       -1.67943
C          6.37837        3.54826       -2.82717
C          5.63387        2.20119       -2.74954
C          5.23860        1.77853       -4.17484
C          6.59136        1.15404       -2.14994
H          6.67814        3.88757       -1.83575
H          7.28056        3.45682       -3.43192
H          5.75468        4.31681       -3.28329
H          6.11951        1.67111       -4.80754
H          4.71128        0.82520       -4.17171
H          4.58904        2.52476       -4.63074
H          6.84478        1.40801       -1.12082
H          6.14184        0.16215       -2.15261
H          7.51746        1.09860       -2.72182
H         -2.05225       -1.23150       -4.99841
H          1.06994        1.23718       -5.41276
H         -0.66097       -0.40789       -5.69836
H         -1.59102        0.36032       -4.40841
H          2.06070        0.49071       -4.15533
H          2.34365        2.16470       -4.62459
