72
-98.09845311
Fe        -0.03460        2.83399       -0.05969
P          1.86068       -0.00003        0.05266
P         -1.85107       -0.08532        0.11991
C          1.44042        1.67275        0.67601
C          0.47052        1.97592        1.71176
C          0.40617        3.41721        1.87902
C          1.33015        4.01280        0.93194
C          1.97672        2.93803        0.19759
C         -1.41866        1.49860       -0.69246
C         -2.02295        2.79469       -0.42832
C         -1.37702        3.78107       -1.27885
C         -0.37130        3.09663       -2.07103
C         -0.39765        1.69095       -1.70736
C          3.15060       -0.69908        1.18715
C          4.39107        0.10184        0.75857
C          2.98858        0.21652       -1.41576
C          4.37737        0.43051       -0.76422
C         -3.34696       -0.75022       -0.74805
C         -4.49450       -0.06154        0.00958
C         -2.64221        0.27330        1.76741
C         -4.15876        0.13379        1.51124
H         -0.07236        1.23775        2.30066
H         -0.22133        3.95470        2.59342
H          1.52645        5.08067        0.81157
H          2.73563        3.05814       -0.57825
H         -2.84030        2.98453        0.27096
H          0.23326        0.90804       -2.12780
Cl         1.66638       -3.03598       -0.17073
Cl        -1.47942       -3.10997       -0.42636
Pd         0.03743       -1.47437       -0.08690
H          3.27635       -1.75659        0.92875
C          2.79646       -0.55785        2.66339
H          2.65445        1.11730       -1.94432
C          2.98892       -0.97457       -2.37433
H          5.31112       -0.43365        1.04009
H          4.41080        1.03645        1.33826
H          4.72820        1.45899       -0.93562
H          5.10917       -0.20677       -1.28007
H         -1.61773        4.84573       -1.32570
H          0.28256        3.55455       -2.81682
H          3.69726       -0.73741        3.26663
H          3.85740       -0.88927       -3.04237
H         -3.37227       -1.83121       -0.57134
C         -3.35092       -0.45778       -2.24481
H         -2.39499        1.32392        1.96807
C         -2.13512       -0.61090        2.90805
H         -5.43006       -0.62846       -0.11549
H         -4.68097        0.91662       -0.45621
H         -4.69473        1.00568        1.91513
H         -4.54433       -0.71912        2.08331
H         -4.33617       -0.71719       -2.65670
H         -2.65005       -0.31884        3.83383
C          1.68618       -1.49839        3.10103
H          1.43057       -1.37328        4.15563
H          0.77987       -1.33168        2.52062
H          1.97037       -2.54163        2.95104
C          1.72816       -1.11110       -3.21060
H          1.79235       -1.94610       -3.91208
H          0.85595       -1.28889       -2.58483
H          1.53741       -0.20804       -3.79341
C         -2.26099       -1.19161       -3.00584
H         -1.27467       -0.90404       -2.64463
H         -2.34727       -2.27201       -2.87687
H         -2.29189       -0.98144       -4.07730
C         -2.30946       -2.10483        2.67978
H         -1.91544       -2.69305        3.51184
H         -3.35711       -2.38188        2.55794
H         -1.78899       -2.43206        1.78107
H          2.51887        0.48506        2.86339
H          3.16335       -1.88969       -1.79428
H         -3.25306        0.62563       -2.39335
H         -1.07733       -0.39313        3.09477
