111
-148.55639456
P         -2.50258       -2.01741       -0.92591
P          0.19171       -0.41712       -0.47882
C         -1.34923       -1.79634       -2.30691
C         -0.15917       -1.13333       -2.09763
C         -3.34756       -3.66276       -0.97662
C         -2.79277       -4.59898        0.07469
C         -1.66120       -2.27064       -3.56493
H         -2.60227       -2.76968       -3.72829
C         -0.77235       -2.08685       -4.61010
H         -1.01484       -2.45726       -5.59277
C          0.42200       -1.42572       -4.39678
H          1.11220       -1.27944       -5.21128
C          0.72701       -0.94221       -3.13721
H          1.64650       -0.40709       -2.95813
Pd        -1.32622       -1.41402        0.95861
Cl        -3.05264       -2.07439        2.22970
Cl        -0.07062       -0.76438        2.70723
C         -4.83039       -3.29078       -0.78856
C         -3.96748       -0.88902       -0.99773
H         -2.92885       -4.18357        1.07424
H         -3.29439       -5.56923        0.05027
H         -1.72235       -4.76590       -0.06748
H         -5.07625       -3.35485        0.28045
H         -5.47781       -4.02923       -1.28554
H         -4.07526       -0.46684        0.01051
C         -5.12986       -1.85278       -1.30112
C         -3.77204        0.20839       -2.02132
H         -3.18054       -4.06979       -1.98189
H         -5.29402       -1.87791       -2.38721
H         -6.06719       -1.46942       -0.86996
H         -3.59711       -0.21318       -3.01287
H         -4.64891        0.85681       -2.08511
H         -2.90992        0.83059       -1.77285
C         -1.24994        3.90522       -0.36526
C         -0.99321        3.28344       -1.61427
C         -0.52514        1.98008       -1.61554
C         -0.37922        1.28138       -0.44617
C         -0.72517        1.84463        0.75336
C         -1.20322        3.14018        0.82780
O         -1.51945        5.29857       -0.30927
C         -1.19649        4.01033       -2.95288
H         -0.26855        1.48834       -2.53704
H         -0.61458        1.24685        1.64095
C         -1.64921        3.68866        2.19206
C          4.51256       -0.81718        0.90485
C          3.74951        0.31900        1.27539
C          2.43986        0.39936        0.83418
C          1.90672       -0.55711        0.01087
C          2.66915       -1.60827       -0.42742
C          3.99193       -1.74194       -0.03695
O          5.77809       -1.05025        1.50585
C          4.29619        1.43185        2.18278
H          1.80537        1.20919        1.14838
H          2.21080       -2.33264       -1.07822
C          4.82986       -2.89252       -0.61693
C          0.09031        4.76223       -3.32428
C         -1.52142        3.00471       -4.08116
C         -2.37991        4.99163       -2.87176
C         -2.22193        2.55260        3.07157
C         -0.44025        4.30500        2.91188
C         -2.76568        4.73634        2.03269
C         -0.36196        6.10409       -0.12630
H         -0.01908        5.27527       -4.27943
H          0.34368        5.50499       -2.57182
H          0.92980        4.07211       -3.40547
H         -1.78286        3.52749       -5.00090
H         -0.67041        2.36458       -4.30909
H         -2.36451        2.37151       -3.80683
H         -3.28796        4.47298       -2.56590
H         -2.18907        5.78357       -2.15156
H         -2.56620        5.46177       -3.83702
H         -1.45070        1.84533        3.37259
H         -2.66057        2.95369        3.98482
H         -2.99906        2.00444        2.53954
H         -0.72781        4.70907        3.88213
H          0.33315        3.55507        3.07541
H         -0.00168        5.11067        2.32766
H         -3.60886        4.31734        1.48450
H         -3.12670        5.07535        3.00335
H         -2.41616        5.61007        1.48868
H         -0.29452        6.83264       -0.93418
H         -0.43663        6.64659        0.81588
H          0.53576        5.48452       -0.11850
C          5.71769       -1.83083        2.69313
C          5.81149        1.61812        1.98678
C          3.62947        2.78605        1.84746
C          3.98804        1.08347        3.64706
C          4.67183       -4.13601        0.27084
C          4.35709       -3.24231       -2.04665
C          6.31516       -2.50059       -0.72127
H          6.04074        1.82241        0.94148
H          6.18471        2.44908        2.58487
H          6.36251        0.72846        2.28082
H          2.57366        2.79320        2.11300
H          4.10251        3.59754        2.40000
H          3.71713        3.00893        0.78443
H          4.35159        1.86042        4.31901
H          2.91394        0.97942        3.79951
H          4.45411        0.14407        3.93479
H          5.01637       -3.94344        1.28402
H          3.62637       -4.43806        0.32823
H          5.24438       -4.97413       -0.12566
H          3.36141       -3.68314       -2.04665
H          4.33880       -2.35353       -2.67694
H          5.02706       -3.96673       -2.50923
H          6.43184       -1.59324       -1.31295
H          6.89695       -3.29134       -1.19426
H          6.74717       -2.31679        0.25922
H          6.32950       -2.72496        2.57439
H          6.11349       -1.25605        3.53022
H          4.68756       -2.11974        2.90567
