171
-217.84568656
P         -1.56756        0.35431       -0.44388
P          1.58690       -0.38532       -0.22840
C         -0.79609        1.34065       -1.72889
C          0.98898       -1.33745       -1.63120
C          0.05376        0.74629       -2.65407
C          0.70676        1.56412       -3.59648
C          0.45398        2.92598       -3.60041
C         -0.41530        3.49112       -2.69122
C         -1.03269        2.69302       -1.74807
C          1.20703       -2.69379       -1.63333
C          0.69665       -3.47921       -2.64774
C         -0.04848       -2.89708       -3.65108
C         -0.28045       -1.53179       -3.66832
C          0.26441       -0.72714       -2.64898
Cl         1.42774        0.28692        2.94345
Cl        -1.73929       -0.51874        2.82578
C         -1.10208       -0.94582       -4.76308
C          1.64921        0.99075       -4.59621
H         -0.60907        4.55106       -2.71315
H         -1.70377        3.12558       -1.02351
H          1.77895       -3.14254       -0.83776
H          0.87467       -4.54212       -2.64983
H          0.94885        3.54635       -4.32854
H         -0.46416       -3.50676       -4.43561
C         -3.72444       -3.31579       -1.96391
C         -2.77839       -3.46254       -0.95760
C         -2.12439       -2.32135       -0.51187
C         -2.39480       -1.10076       -1.07796
C         -3.31837       -0.97404       -2.08633
C         -4.01080       -2.08787       -2.54747
H         -4.26966       -4.18239       -2.28937
H         -1.40503       -2.37254        0.28670
H         -3.49994        0.00371       -2.49924
C         -4.47880        2.77801        2.05755
C         -3.12018        3.05377        2.15837
C         -2.25011        2.33097        1.35343
C         -2.72259        1.35451        0.51156
C         -4.06684        1.08789        0.43363
C         -4.97656        1.80467        1.20008
H         -5.17316        3.32218        2.66963
H         -1.18980        2.51190        1.40563
H         -4.39987        0.30130       -0.21912
C          4.39203       -2.79332        2.40865
C          3.05606       -3.17258        2.33560
C          2.21820       -2.44831        1.49773
C          2.69716       -1.37761        0.78497
C          4.01499       -1.00807        0.88264
C          4.89355       -1.71179        1.69371
H          5.05558       -3.34797        3.04347
H          1.17679       -2.70894        1.41403
H          4.36141       -0.15088        0.33263
C          3.79685        3.43541       -1.20454
C          2.76222        3.47920       -0.27766
C          2.06575        2.30382       -0.03140
C          2.40901        1.14147       -0.67568
C          3.43848        1.11207       -1.58380
C          4.15754        2.26754       -1.86601
H          4.35402        4.32980       -1.40972
H          1.25738        2.28715        0.67864
H          3.68469        0.17496       -2.05374
Pd        -0.11750       -0.09147        1.34194
C         -1.32441       -4.80520        0.63454
C         -2.51544       -4.84322       -0.34217
C         -2.19132       -5.85392       -1.45860
C         -3.76921       -5.29854        0.42446
H         -1.11571       -5.79876        1.03089
H         -0.42539       -4.45007        0.13194
H         -1.52960       -4.15088        1.48140
H         -1.95579       -6.83284       -1.04139
H         -3.03120       -5.97862       -2.14068
H         -1.33349       -5.52077       -2.04151
H         -3.61303       -6.27398        0.88477
H         -4.01653       -4.58784        1.21288
H         -4.62993       -5.37413       -0.23932
C         -6.46874       -2.30068       -2.95899
C         -5.11130       -1.98620       -3.61338
C         -4.84002       -2.99639       -4.74485
C         -5.17712       -0.57402       -4.22731
H         -7.27865       -2.22891       -3.68470
H         -6.48030       -3.30707       -2.54165
H         -6.67752       -1.60176       -2.14968
H         -5.59488       -2.91543       -5.52684
H         -3.86634       -2.81947       -5.19933
H         -4.85558       -4.02142       -4.37710
H         -5.42936        0.17155       -3.47359
H         -4.22531       -0.29836       -4.68044
H         -5.94030       -0.52517       -5.00389
C         -3.65687        4.73366        3.99568
C         -2.54941        4.07865        3.14856
C         -1.81118        5.18119        2.37016
C         -1.56573        3.36589        4.09727
H         -4.20009        3.98723        4.57493
H         -3.23269        5.45126        4.69790
H         -4.36753        5.26925        3.36653
H         -2.48477        5.68003        1.67362
H         -1.40427        5.93290        3.04629
H         -0.98454        4.76631        1.79728
H         -2.06598        2.56099        4.63516
H         -0.73112        2.92886        3.55067
H         -1.15614        4.06055        4.83018
C         -6.82474        0.44438        0.10002
C         -6.48522        1.52543        1.14564
C         -7.23154        2.81795        0.76670
C         -6.95802        1.03586        2.52631
H         -7.89958        0.26828        0.05983
H         -6.50236        0.74867       -0.89563
H         -6.34557       -0.50341        0.34488
H         -8.30483        2.64200        0.69638
H         -7.07116        3.60106        1.50668
H         -6.88703        3.19218       -0.19719
H         -6.42253        0.13227        2.81713
H         -6.78347        1.78899        3.29382
H         -8.02400        0.80920        2.51647
C          2.14298       -5.49391        2.15739
C          2.48550       -4.35447        3.13223
C          1.21272       -3.90571        3.87855
C          3.49257       -4.87936        4.17389
H          3.03621       -5.83542        1.63463
H          1.71220       -6.34488        2.68468
H          1.42624       -5.16385        1.40738
H          0.81779       -4.71215        4.49600
H          1.42718       -3.05677        4.52729
H          0.42623       -3.60601        3.18780
H          4.38655       -5.27680        3.69402
H          3.79074       -4.08796        4.86139
H          3.05407       -5.68409        4.76392
C          7.17734       -2.14083        2.73520
C          6.35733       -1.25653        1.77680
C          6.40610        0.19611        2.28778
C          6.99139       -1.33237        0.37532
H          8.21247       -1.80277        2.78260
H          6.77196       -2.10386        3.74617
H          7.18457       -3.17855        2.40229
H          5.88681        0.87305        1.61023
H          5.93229        0.27535        3.26595
H          7.43502        0.54312        2.38066
H          6.94860       -2.35009       -0.01211
H          6.47117       -0.68490       -0.32941
H          8.03639       -1.02410        0.40207
C          1.05854        5.30131       -0.16639
C          2.36189        4.77028        0.45067
C          3.45068        5.85376        0.32390
C          2.14782        4.48206        1.95074
H          1.20293        5.54220       -1.21928
H          0.26791        4.55534       -0.10127
H          0.72009        6.20285        0.34390
H          4.40835        5.48891        0.69498
H          3.57786        6.16854       -0.71147
H          3.18435        6.73862        0.90194
H          1.91696        5.39808        2.49424
H          1.32423        3.78932        2.11447
H          3.04438        4.04567        2.39034
C          5.17160        3.34741       -3.89845
C          5.36444        2.26959       -2.81492
C          5.54500        0.90560       -3.50975
C          6.63628        2.57459       -2.00223
H          5.11503        4.34431       -3.46343
H          6.00165        3.34177       -4.60474
H          4.25293        3.17500       -4.45763
H          4.65978        0.63669       -4.08480
H          6.39053        0.93085       -4.19703
H          5.73715        0.11632       -2.78340
H          6.57425        3.55223       -1.52540
H          6.78077        1.83038       -1.21924
H          7.51915        2.56887       -2.64120
H         -1.44347        0.05960       -4.51331
H          1.16041        0.86016       -5.56253
H         -1.98645       -1.55479       -4.95053
H         -0.53228       -0.88996       -5.69158
H          2.02873        0.01995       -4.27448
H          2.50675        1.64760       -4.74356
