111
-148.55423297
P         -2.40666       -2.34383       -0.01985
P          0.00178       -0.35074       -0.51484
C         -1.70942       -2.17730       -1.68188
C         -0.69052       -1.27634       -1.89967
C         -2.55461       -4.11598        0.48347
C         -1.80767       -4.35689        1.77720
C         -2.20542       -2.92442       -2.73098
H         -2.98718       -3.64366       -2.54911
C         -1.69309       -2.74811       -4.00473
H         -2.08110       -3.32940       -4.82520
C         -0.69123       -1.82282       -4.22640
H         -0.29776       -1.67909       -5.21924
C         -0.18932       -1.08347       -3.17040
H          0.58968       -0.35375       -3.32797
Pd        -1.27929       -0.87255        1.35282
Cl        -2.71290       -1.31416        3.02111
Cl        -0.16025        0.67367        2.54367
C         -4.07940       -4.32911        0.59018
C         -4.17989       -1.81663        0.10135
H         -1.87868       -5.40036        2.09374
H         -0.74911       -4.10364        1.67854
H         -2.21962       -3.73997        2.57807
H         -4.29276       -5.05601        1.38734
H         -4.45943       -4.78589       -0.33539
H         -4.19336       -0.90157        0.70935
C         -4.83335       -2.99465        0.85179
C         -4.78284       -1.55404       -1.26264
H         -2.12321       -4.71590       -0.32940
H         -5.88934       -3.07992        0.55639
H         -4.84198       -2.78845        1.93226
H         -5.80343       -1.17215       -1.18338
H         -4.19174       -0.82998       -1.82758
H         -4.82347       -2.47283       -1.84946
C         -1.08662        4.06162       -0.71830
C          0.27976        3.68428       -0.77434
C          0.59133        2.33659       -0.71344
C         -0.39392        1.38608       -0.67292
C         -1.71727        1.73896       -0.72193
C         -2.09892        3.06958       -0.77644
O         -1.43892        5.43027       -0.57455
C          1.41992        4.71157       -0.85622
H          1.61532        2.00955       -0.67891
H         -2.45326        0.95343       -0.69560
C         -3.59487        3.41411       -0.84460
C          4.46691       -1.10108        0.09945
C          3.75327       -0.25452        0.98445
C          2.39427       -0.09242        0.77953
C          1.75937       -0.65447       -0.29659
C          2.46789       -1.39221       -1.20993
C          3.82830       -1.60566       -1.06171
O          5.80543       -1.47497        0.39285
C          4.41589        0.46532        2.16952
H          1.79680        0.46026        1.48216
H          1.93845       -1.81615       -2.04344
C          4.58686       -2.39509       -2.14073
C          0.99739        5.94098       -1.68067
C          1.82497        5.13736        0.56325
C          2.65681        4.10291       -1.55609
C         -4.38318        2.29262       -1.55799
C         -4.14650        3.55935        0.58223
C         -3.83102        4.70755       -1.64493
C         -1.55292        5.86448        0.77497
H          1.82371        6.64310       -1.78876
H          0.67372        5.64179       -2.67701
H          0.17444        6.47186       -1.20867
H          0.99967        5.61646        1.08331
H          2.12781        4.27284        1.15273
H          2.65847        5.83885        0.53799
H          3.11997        3.32392       -0.95224
H          2.38520        3.67484       -2.52067
H          3.41622        4.86481       -1.73048
H         -4.41724        1.38590       -0.95663
H         -5.41481        2.59607       -1.73490
H         -3.93415        2.05299       -2.52155
H         -5.21141        3.78979        0.56788
H         -4.00812        2.63547        1.14363
H         -3.63832        4.35256        1.12436
H         -4.89554        4.91902       -1.74265
H         -3.36905        5.56451       -1.16149
H         -3.40897        4.62140       -2.64564
H         -1.32101        5.04658        1.45847
H         -0.86754        6.69333        0.95106
H         -2.56628        6.21941        0.96137
C          5.91700       -2.63978        1.20123
C          5.89045        0.79232        1.87174
C          3.70861        1.81119        2.44892
C          4.30876       -0.41648        3.42261
C          6.03271       -1.88553       -2.28333
C          4.58554       -3.88733       -1.77649
C          3.91145       -2.22532       -3.52085
H          6.33811        1.36044        2.68680
H          6.47969       -0.11125        1.73903
H          5.97543        1.38277        0.96003
H          4.24529        2.38069        3.20726
H          3.66475        2.41678        1.54455
H          2.69360        1.66807        2.81601
H          4.76374        0.07179        4.28396
H          3.26508       -0.61922        3.66191
H          4.80597       -1.37248        3.27565
H          6.60179       -2.04705       -1.37109
H          6.55211       -2.40079       -3.09092
H          6.04371       -0.81776       -2.49956
H          5.07959       -4.06102       -0.82370
H          3.56586       -4.26310       -1.69507
H          5.10251       -4.47470       -2.53493
H          2.93648       -2.70938       -3.55520
H          4.51858       -2.67490       -4.30628
H          3.78093       -1.17061       -3.76179
H          6.40229       -2.38836        2.14403
H          4.93054       -3.05985        1.40157
H          6.53121       -3.38057        0.68940
