58
-89.86661892
P          1.54760        0.16462        0.81302
C          1.54451        1.93683        0.50977
C          1.61805        2.36250       -0.79699
C          1.60025        3.71434       -1.08541
C          1.51545        4.63251       -0.05770
C          1.45542        4.20223        1.25334
C          1.47246        2.84883        1.53819
H          1.42844        2.50414        2.55812
H          1.69021        1.62688       -1.58290
C          3.17467       -0.52683        0.49870
C          4.27241        0.30274        0.53532
C          5.53388       -0.21367        0.29895
C          5.68577       -1.55915        0.02794
C          4.58154       -2.38766       -0.00716
C          3.32160       -1.86848        0.23072
H          2.45067       -2.50256        0.18966
H          4.13659        1.35189        0.74453
C          1.06593       -0.26617        2.53730
C          0.39308       -1.63142        2.59704
C         -1.10760       -1.59343        2.35121
P         -1.61270       -0.75981        0.78459
C         -1.83006        1.02278        0.95576
C         -1.83341        1.65375        2.17872
C         -1.95804        3.02941        2.24207
C         -2.08279        3.76640        1.08121
C         -2.09138        3.13042       -0.14354
C         -1.96767        1.75491       -0.20206
H         -1.96887        1.23981       -1.15017
H         -1.74968        1.07600        3.08352
C         -3.11997       -1.52749        0.18542
C         -4.28519       -0.79928        0.10919
C         -5.44016       -1.39750       -0.36131
C         -5.41794       -2.72156       -0.75322
C         -4.24573       -3.44771       -0.67611
C         -3.09214       -2.84671       -0.20422
H         -2.16580       -3.39692       -0.14931
H         -4.28557        0.23477        0.41375
Pd         0.07921       -0.60638       -0.80714
Cl         1.76496       -0.73220       -2.28191
Cl        -1.50792       -1.06342       -2.32943
H         -1.52094       -2.60445        2.31499
H         -1.62409       -1.08311        3.16549
H          0.86950       -2.29355        1.86109
H          0.58632       -2.10317        3.57335
H          1.98927       -0.23949        3.12173
H          0.41379        0.50917        2.93844
H          1.65102        4.04816       -2.10868
H          1.39090        4.91986        2.05468
H          6.39485        0.43391        0.32388
H          4.69928       -3.43650       -0.22475
H         -1.95466        3.52642        3.19829
H         -2.18712        3.70276       -1.05147
H         -6.35387       -0.82973       -0.42480
H         -4.22693       -4.47919       -0.98741
H          1.49791        5.68721       -0.27898
H          6.66740       -1.96280       -0.15966
H         -2.17280        4.83927        1.13125
H         -6.31633       -3.18820       -1.12316
