111
-148.55662689
P         -1.93134       -2.65684       -0.42663
P         -0.26949        0.02595       -0.57046
C         -1.43957       -1.98835       -2.03704
C         -0.77176       -0.78479       -2.09963
C         -1.24351       -4.35445       -0.17218
C         -0.32269       -4.36349        1.02906
C         -1.72606       -2.67880       -3.19715
H         -2.23151       -3.62896       -3.13928
C         -1.35382       -2.15141       -4.42163
H         -1.57950       -2.68814       -5.32861
C         -0.69125       -0.94027       -4.48225
H         -0.39783       -0.53174       -5.43524
C         -0.39227       -0.25814       -3.31633
H          0.14584        0.67598       -3.34476
Pd        -1.33855       -1.08540        1.15551
Cl        -2.84223       -1.95990        2.56805
Cl        -0.58801        0.49824        2.55897
C         -2.49745       -5.23834       -0.00786
C         -3.74188       -3.03563       -0.35864
H          0.10455       -5.35465        1.19954
H          0.49746       -3.65231        0.90715
H         -0.86664       -4.07701        1.93174
H         -2.64396       -5.44362        1.06132
H         -2.33651       -6.22168       -0.47459
H         -4.06301       -2.79676        0.66362
C         -3.77499       -4.55851       -0.57699
C         -4.53342       -2.22557       -1.36312
H         -0.70096       -4.60857       -1.09220
H         -3.85542       -4.76219       -1.65353
H         -4.68318       -4.98908       -0.12799
H         -5.60109       -2.44859       -1.30226
H         -4.40073       -1.15358       -1.19880
H         -4.21085       -2.44190       -2.38239
C         -0.94672        4.52824       -0.46012
C          0.16587        4.00787       -1.16998
C          0.35852        2.63564       -1.17699
C         -0.54364        1.79408       -0.57956
C         -1.67785        2.28596        0.01126
C         -1.92708        3.64719        0.06231
O         -1.05910        5.92828       -0.24760
C          1.16522        4.91423       -1.90677
H          1.22835        2.20319       -1.64047
H         -2.36249        1.58563        0.45818
C         -3.22485        4.13886        0.72209
C          3.96465       -1.27318        0.48571
C          3.52252        0.02230        0.85879
C          2.22498        0.38876        0.54201
C          1.41601       -0.43998       -0.18853
C          1.86860       -1.65502       -0.63435
C          3.15371       -2.08533       -0.34821
O          5.20309       -1.78075        0.96234
C          4.41055        1.03023        1.60547
H          1.82010        1.32780        0.87699
H          1.19719       -2.26524       -1.21295
C          3.67029       -3.40427       -0.94570
C          1.82473        4.15986       -3.08339
C          0.45522        6.14396       -2.50189
C          2.26835        5.36029       -0.93580
C         -4.36039        3.10767        0.52786
C         -2.98528        4.32279        2.22861
C         -3.70754        5.45787        0.09218
C         -0.44703        6.38502        0.95215
H          1.06951        3.72365       -3.73675
H          2.43500        4.83549       -3.68233
H          2.47979        3.36309       -2.73384
H         -0.35593        5.83703       -3.16129
H          0.03170        6.77263       -1.72232
H          1.14838        6.75593       -3.07850
H          1.85785        5.92425       -0.10234
H          2.79158        4.49762       -0.52633
H          3.00046        5.99087       -1.43964
H         -5.31082        3.50860        0.87929
H         -4.47449        2.85031       -0.52483
H         -4.17497        2.19210        1.08749
H         -2.67645        3.38291        2.68581
H         -2.20253        5.05330        2.41778
H         -3.89141        4.66113        2.73035
H         -2.99490        6.26187        0.25621
H         -3.83911        5.34343       -0.98325
H         -4.66010        5.77047        0.51925
H          0.27529        7.16668        0.71718
H         -1.20275        6.81002        1.61227
H          0.05720        5.56154        1.45952
C          5.12307       -2.39883        2.24075
C          4.06608        2.47390        1.17322
C          4.16634        0.89762        3.11639
C          5.90048        0.81744        1.28113
C          5.13962       -3.25123       -1.37900
C          3.54406       -4.53580        0.08470
C          2.85893       -3.79866       -2.20023
H          4.11154        2.57016        0.08881
H          3.07174        2.77008        1.50369
H          4.77066        3.18575        1.60266
H          4.78333        1.60059        3.67540
H          3.12257        1.09968        3.35598
H          4.39492       -0.10582        3.46744
H          6.24954       -0.15381        1.62046
H          6.07007        0.87433        0.20640
H          6.51817        1.57540        1.76224
H          5.78066       -3.03676       -0.52661
H          5.50696       -4.16304       -1.84915
H          5.24673       -2.43450       -2.09210
H          4.13470       -4.32875        0.97255
H          2.50857       -4.66475        0.39458
H          3.88959       -5.48160       -0.33200
H          2.83610       -2.98245       -2.92191
H          1.83325       -4.06324       -1.94636
H          3.30175       -4.66537       -2.69038
H          5.62292       -3.36687        2.20542
H          5.62981       -1.78504        2.98443
H          4.08087       -2.53514        2.53238
