59
-75.81166843
Cl         1.63371        0.64692        2.31332
P          1.59896       -0.10260       -0.80445
P         -1.60144       -0.12141       -0.78096
C          0.62156        0.08079       -2.36146
H          0.39470        1.13895       -2.51058
H          1.24180       -0.24247       -3.20329
C         -0.64322       -0.71738       -2.24399
H         -0.41647       -1.77706       -2.10526
H         -1.27451       -0.63139       -3.13389
C          2.61341       -1.65150       -0.90342
H          2.06631       -2.37983       -1.51459
C          2.99387        1.11952       -0.71509
H          3.07519        1.38489        0.34673
C         -3.00992       -1.25950       -0.37157
H         -3.09457       -1.22783        0.72219
C         -2.60086        1.36217       -1.27016
H         -2.04811        1.90678       -2.04548
C          3.87270       -1.12953       -1.62541
H          4.71657       -1.81405       -1.45111
H          3.70307       -1.13999       -2.71293
C          4.23291        0.31322       -1.17106
H          4.73711        0.85170       -1.98583
H          4.97006        0.27096       -0.35607
C         -4.23925       -0.59191       -1.03230
H         -4.73862       -1.31911       -1.68789
H         -4.98418       -0.34063       -0.26332
C         -3.86606        0.68563       -1.83696
H         -4.70338        1.39973       -1.84275
H         -3.69788        0.41884       -2.89156
C          2.93102       -2.23437        0.47419
H          3.26901       -1.41975        1.12829
H          3.79572       -2.90657        0.38292
C          2.74249        2.37906       -1.53464
H          3.66278        2.97916       -1.56289
H          2.55476        2.09276       -2.57752
C         -2.77217       -2.69579       -0.82090
H         -3.69807       -3.27230       -0.68612
H         -2.58451       -2.70338       -1.90236
C         -2.91149        2.27787       -0.08553
H         -3.76893        2.91439       -0.34535
H         -3.25797        1.65839        0.75221
C          1.77662       -2.98523        1.11824
H          1.43309       -3.80230        0.48114
H          0.92416       -2.33237        1.30067
H          2.05855       -3.41782        2.08091
C          1.59696        3.21837       -0.99358
H          0.66844        2.64847       -0.97325
H          1.42100        4.11292       -1.59532
H          1.79408        3.54243        0.03011
C         -1.63272       -3.36894       -0.07389
H         -1.46919       -4.39556       -0.40942
H         -1.82800       -3.39957        0.99977
H         -0.69813       -2.82591       -0.21176
C         -1.74874        3.15434        0.35137
H         -1.40192        3.78682       -0.46783
H         -2.02334        3.81276        1.17865
H         -0.90064        2.55900        0.68701
Cl        -1.64920        0.07062        2.37711
Pd         0.01169        0.09342        0.87130
