45
-71.82120277
C          0.39904        1.48384        3.15113
P         -0.16907        0.76180        1.57646
P         -0.13144        0.79554       -1.57162
C          0.45381        1.54410       -3.12768
Cl         2.95151       -0.07817        1.66174
H          0.80600        2.47585        2.97727
H          1.23664        0.92715       -3.55957
Cl         3.01767        0.15232       -1.60979
C         -1.32628        1.82602        0.68919
C         -1.31061        1.84017       -0.68903
C         -2.21977        2.60987       -1.38554
C         -3.14348        3.37464       -0.69520
C         -3.15908        3.36038        0.68604
C         -2.25100        2.58124        1.38099
H         -2.20740        2.60262       -2.46335
H         -3.85368        3.97803       -1.23628
H         -3.88148        3.95254        1.22336
H         -2.26290        2.55131        2.45844
Pd         1.49140        0.36927        0.01914
H          0.85313        2.53539       -2.93335
H          1.17270        0.85613        3.58411
H         -0.36510        1.62173       -3.83704
C         -1.73990       -3.42959       -2.00352
C         -2.61563       -2.38291       -1.78967
C         -2.13235       -1.09155       -1.67928
C         -0.78121       -0.85950       -1.78952
C          0.09586       -1.89760       -2.00303
C         -0.38384       -3.18993       -2.11086
H         -2.11554       -4.43660       -2.08329
H         -3.67273       -2.57181       -1.69989
H         -2.79956       -0.26531       -1.49366
H          1.15224       -1.68719       -2.06339
H          0.30000       -4.00699       -2.27171
C         -1.82097       -3.45496        1.92528
C         -0.46290       -3.23103        2.04007
C          0.02973       -1.94200        1.95631
C         -0.83570       -0.89099        1.75962
C         -2.18885       -1.10750        1.64220
C         -2.68542       -2.39572        1.72799
H         -2.20696       -4.45937        1.98621
H          0.21237       -4.05759        2.18814
H          1.08795       -1.74341        2.02254
H         -2.84728       -0.27138        1.47004
H         -3.74412       -2.57226        1.63216
H         -0.42906        1.55523        3.85039
