64
-97.22294722
Cl        -1.31678       -0.36331       -2.82335
Cl         1.90809       -0.71187       -2.91041
P          1.94976       -0.67407        0.34417
C          2.03856       -2.42686        0.94710
C          3.77264       -0.35558        0.15826
P         -1.26087       -0.30199        0.37329
C          1.19411        0.47087        1.55516
C         -0.24876        0.61889        1.59598
C         -0.56943        1.61105        2.61167
C          0.68901        2.10798        3.14339
C          1.78215        1.36378        2.54037
H         -1.56902        1.92397        2.91853
H          0.79200        2.85781        3.93131
Pd         0.32373       -0.68888       -1.33171
H          2.84769        1.48740        2.74260
C         -5.15579        1.73506       -0.85151
C         -4.86705        0.45183       -1.27080
C         -3.68053       -0.14755       -0.88711
C         -2.78691        0.53607       -0.09442
C         -3.07965        1.81133        0.33212
C         -4.26316        2.41593       -0.04810
H         -6.07847        2.20499       -1.15084
H         -5.56176       -0.08198       -1.89827
H         -3.44089       -1.14824       -1.21073
H         -2.38034        2.33345        0.96004
H         -4.48742        3.41694        0.28230
C         -2.42733       -4.39080        1.97052
C         -2.04025       -4.25600        0.65137
C         -1.68916       -3.01163        0.16047
C         -1.72252       -1.91693        0.99317
C         -2.11721       -2.04188        2.30513
C         -2.46938       -3.28575        2.79839
H         -2.70098       -5.36028        2.35387
H         -2.01348       -5.11736        0.00435
H         -1.39836       -2.88687       -0.87027
H         -2.14088       -1.16765        2.93672
H         -2.77491       -3.39094        3.82643
C          4.16058        0.55545       -0.98555
H          4.08797        0.08098        1.11526
C          4.34136       -1.77844        0.02615
H          5.40836       -1.79186        0.29652
C          3.53554       -2.78890        0.88209
H          4.30042       -2.07547       -1.03118
C          1.45778       -2.53675        2.34029
H          1.46050       -3.02362        0.22902
H          3.94006       -2.80141        1.90308
H          3.66678       -3.81385        0.50486
H          0.41739       -2.21088        2.36577
H          1.50004       -3.56302        2.71245
H          2.01087       -1.90490        3.03816
H          3.77497        1.56476       -0.84696
H          5.24595        0.62882       -1.07960
H          3.77745        0.17677       -1.93254
Fe         0.65027        2.33307        1.11978
C          1.96227        3.43039       -0.05193
C          0.97634        4.30734        0.55463
C         -0.33897        3.86697        0.12613
C         -0.16288        2.71404       -0.73726
C          1.25687        2.45398       -0.86079
H          3.04519        3.52452        0.05231
H          1.18825        5.16291        1.19950
H         -1.28778        4.34558        0.37763
H         -0.94921        2.16640       -1.26066
H          1.69666        1.68515       -1.49891
