171
-217.84682163
P         -1.60360        0.39826       -0.37409
P          1.59951       -0.33940       -0.27204
C         -0.84292        1.44993       -1.61880
C          0.97359       -1.21942       -1.70531
C          0.01484        0.92007       -2.57668
C          0.67949        1.80096       -3.45190
C          0.43297        3.16073       -3.36165
C         -0.44334        3.66378       -2.42382
C         -1.07303        2.80256       -1.54737
C          1.21322       -2.56782       -1.80332
C          0.70903       -3.28562       -2.87026
C         -0.04890       -2.64467       -3.82755
C         -0.30220       -1.28535       -3.74613
C          0.23351       -0.54911       -2.67200
Cl         1.48859        0.29950        2.93238
Cl        -1.65375       -0.33892        2.87435
C         -1.11343       -0.62360       -4.80469
C          1.64694        1.30334       -4.46851
H         -0.63026        4.72373       -2.36802
H         -1.74832        3.18941       -0.80191
H          1.79919       -3.05994       -1.04383
H          0.90540       -4.34211       -2.95247
H          0.94176        3.82884       -4.03600
H         -0.45327       -3.20233       -4.65543
C         -3.59032       -3.38168       -1.85928
C         -2.68687       -3.46752       -0.80694
C         -2.05696       -2.29883       -0.40061
C         -2.34159       -1.10327       -1.01242
C         -3.24665       -1.03232       -2.04255
C         -3.89251       -2.17980       -2.48806
H         -4.08752       -4.27159       -2.19595
H         -1.34610       -2.31401        0.40704
H         -3.45184       -0.07161       -2.48341
C         -4.69069        2.64304        2.07957
C         -3.35516        3.01315        2.18678
C         -2.42955        2.33563        1.40469
C         -2.82663        1.31693        0.57482
C         -4.14810        0.95502        0.49265
C         -5.11184        1.61880        1.24051
H         -5.42747        3.15514        2.66926
H         -1.38475        2.59153        1.45700
H         -4.42023        0.13931       -0.15274
C          4.25679       -2.94874        2.32620
C          2.89799       -3.23697        2.25826
C          2.10669       -2.45485        1.42703
C          2.65272       -1.41378        0.71817
C          3.99365       -1.13661        0.80755
C          4.82740       -1.90395        1.60838
H          4.88323       -3.54434        2.96169
H          1.04861       -2.64157        1.35384
H          4.39394       -0.30016        0.26235
C          3.92743        3.39881       -1.28634
C          2.86083        3.49483       -0.40154
C          2.15366        2.33556       -0.11083
C          2.49172        1.14839       -0.71025
C          3.53367        1.07336       -1.60143
C          4.28181        2.20529       -1.90326
H          4.51366        4.27709       -1.48396
H          1.33959        2.34615        0.59265
H          3.76394        0.12002       -2.04615
Pd        -0.06181        0.01226        1.32936
C         -3.42224       -5.86957       -0.40849
C         -2.35012       -4.79977       -0.12150
C         -2.27139       -4.60364        1.40652
C         -0.99585       -5.29724       -0.64996
H         -4.41122       -5.51788       -0.11495
H         -3.44828       -6.13229       -1.46556
H         -3.21439       -6.78382        0.14739
H         -2.09506       -5.55282        1.91223
H         -1.46197       -3.93145        1.68552
H         -3.20200       -4.18542        1.78939
H         -1.04363       -5.47182       -1.72454
H         -0.21594       -4.55961       -0.46709
H         -0.70367       -6.22999       -0.16794
C         -6.31143       -2.56920       -3.00385
C         -4.95431       -2.14708       -3.59665
C         -4.55776       -3.12159       -4.72172
C         -5.10430       -0.73663       -4.19947
H         -6.26935       -3.58081       -2.60166
H         -6.60303       -1.90035       -2.19461
H         -7.09389       -2.54302       -3.76204
H         -3.58021       -2.86730       -5.12885
H         -4.51107       -4.14815       -4.36065
H         -5.28061       -3.08993       -5.53678
H         -5.42618       -0.01924       -3.44483
H         -4.16459       -0.38912       -4.62692
H         -5.84984       -0.73328       -4.99449
C         -3.99970        4.61143        4.06007
C         -2.87598        4.13337        3.12039
C         -2.40252        5.32404        2.26932
C         -1.71047        3.61602        3.98755
H         -4.38644        3.78577        4.65721
H         -3.63132        5.37371        4.74652
H         -4.82461        5.04899        3.49834
H         -2.03402        6.13390        2.89867
H         -1.59949        5.02809        1.59641
H         -3.21928        5.71185        1.66082
H         -2.01298        2.73312        4.55015
H         -0.84825        3.34408        3.38062
H         -1.38582        4.37561        4.69832
C         -7.42477        2.46304        0.75465
C         -6.59716        1.23548        1.17800
C         -7.05304        0.75309        2.56690
C         -6.84916        0.10512        0.15993
H         -8.48278        2.21259        0.67889
H         -7.32635        3.27568        1.47333
H         -7.09507        2.83266       -0.21619
H         -8.10106        0.45438        2.55214
H         -6.46142       -0.10371        2.88889
H         -6.93959        1.53717        3.31463
H         -6.30552       -0.79904        0.43354
H         -7.90827       -0.14852        0.11704
H         -6.54072        0.40493       -0.84146
C          1.60086       -5.37939        2.15261
C          2.23997       -4.34410        3.09400
C          1.15432       -3.71758        3.99082
C          3.26039       -5.06554        3.99493
H          2.35007       -5.81652        1.49281
H          1.13298       -6.18601        2.71676
H          0.83522       -4.92002        1.53111
H          1.58653       -2.96114        4.64539
H          0.37716       -3.23653        3.39849
H          0.67758       -4.47357        4.61427
H          4.03916       -5.54403        3.40137
H          3.73115       -4.36966        4.68912
H          2.77338       -5.84135        4.58563
C          6.93583       -1.64690        0.27646
C          6.31948       -1.55056        1.68467
C          7.08566       -2.50400        2.62117
C          6.47091       -0.11312        2.21758
H          7.99973       -1.41152        0.29878
H          6.82025       -2.65288       -0.12642
H          6.45620       -0.95391       -0.41357
H          6.69660       -2.45179        3.63784
H          7.01439       -3.53499        2.27508
H          8.14281       -2.24133        2.65934
H          5.99189        0.60784        1.55599
H          6.01267       -0.01803        3.20175
H          7.52170        0.16238        2.30510
C          2.34360        5.91593       -0.82914
C          2.52385        4.83885        0.25729
C          3.67186        5.23755        1.20076
C          1.21937        4.75369        1.07321
H          1.56482        5.62516       -1.53319
H          2.05951        6.87095       -0.38750
H          3.26240        6.07238       -1.39263
H          3.81862        4.47865        1.96914
H          4.60889        5.34658        0.65556
H          3.45931        6.18458        1.69646
H          0.96392        5.72403        1.49867
H          0.38973        4.43683        0.44211
H          1.31556        4.04895        1.89879
C          5.42962        3.25727       -3.88416
C          5.51488        2.14959       -2.81622
C          5.62686        0.79107       -3.53603
C          6.77537        2.35679       -1.95735
H          4.52080        3.15712       -4.47611
H          5.42787        4.24860       -3.43327
H          6.27993        3.20707       -4.56411
H          5.76288       -0.02267       -2.82426
H          4.73526        0.58615       -4.12790
H          6.48265        0.78056       -4.21089
H          6.85021        1.58609       -1.19041
H          7.67665        2.31461       -2.56865
H          6.75387        3.32418       -1.45641
H         -1.56419        0.30051       -4.44014
H          1.22022        1.35390       -5.47116
H         -1.92072       -1.27390       -5.14174
H         -0.49827       -0.38079       -5.67205
H          1.93622        0.26966       -4.27471
H          2.55619        1.90482       -4.46162
