87
-129.18515440
P         -1.70970       -0.37723       -0.12204
P          1.56925        0.34285       -0.18595
C         -1.45792        0.96367       -1.31000
C          1.31374       -0.64617       -1.66406
C         -0.50151        0.93044       -2.32325
C         -0.29481        2.08688       -3.10000
C         -1.06586        3.21170       -2.86387
C         -2.01803        3.22288       -1.86865
C         -2.20267        2.09820       -1.08897
C          2.10768       -1.74488       -1.88417
C          1.92739       -2.51411       -3.01658
C          0.94737       -2.17354       -3.92497
C          0.13366       -1.07139       -3.72036
C          0.32231       -0.28349       -2.56720
Cl         1.33474        1.21266        2.82926
Cl        -1.34006       -0.73913        3.09760
H         -2.60600        4.10818       -1.68984
H         -2.92978        2.10827       -0.29358
H          2.87535       -1.99933       -1.17253
H          2.54806       -3.37840       -3.18731
H         -0.90529        4.09054       -3.46513
H          0.80063       -2.77311       -4.80729
C         -0.86330       -4.59787       -1.57342
C         -0.35303       -4.17551       -0.35345
C         -0.64576       -2.88664        0.07439
C         -1.41030       -2.04777       -0.70362
C         -1.93716       -2.48381       -1.89606
C         -1.66107       -3.76554       -2.33434
H         -0.63231       -5.58992       -1.92228
C          0.52482       -5.06084        0.45875
H         -0.29967       -2.54799        1.03596
H         -2.54264       -1.81391       -2.48553
H         -2.05685       -4.10909       -3.27596
C         -5.82613       -0.05720        1.79583
C         -5.59202       -0.99957        0.81403
C         -4.34017       -1.09623        0.23578
C         -3.33275       -0.25353        0.64431
C         -3.56501        0.68772        1.62063
C         -4.81858        0.80353        2.20885
H         -6.79751        0.01349        2.25489
H         -6.38244       -1.66208        0.50134
H         -4.14161       -1.83064       -0.52774
H         -2.76214        1.32836        1.94641
C         -5.05199        1.79565        3.29318
C          4.93044       -1.47624        2.29648
C          5.07212       -0.20199        1.78326
C          4.05779        0.35384        1.02684
C          2.91374       -0.36908        0.78455
C          2.76906       -1.63690        1.29882
C          3.77384       -2.20906        2.06842
H          5.72039       -1.91172        2.88434
H          5.97096        0.36083        1.97497
H          4.15011        1.35169        0.63072
H          1.86912       -2.19267        1.09913
C          3.61503       -3.58785        2.60555
C          2.43413        4.64559       -1.35093
C          3.17143        3.61901       -1.90796
C          2.91913        2.31034       -1.53992
C          1.93682        2.04364       -0.61538
C          1.20618        3.06357       -0.05226
C          1.44643        4.38421       -0.41116
H          2.61947        5.66428       -1.64617
H          3.93599        3.83573       -2.63587
H          3.47096        1.49384       -1.97892
H          0.43636        2.83520        0.66539
C          0.62412        5.48299        0.16355
Pd        -0.07989        0.12916        1.46425
C          0.74207        2.13227       -4.16860
C         -0.92118       -0.74733       -4.72038
H          1.29369        3.07281       -4.13415
H          1.46651        1.32477       -4.05795
H          0.28746        2.04608       -5.15618
H         -1.63592       -0.02324       -4.32773
H         -0.48178       -0.32982       -5.62713
H         -1.47964       -1.64180       -5.00010
H          0.42714       -4.84136        1.52294
H          0.26969       -6.11124        0.31198
H          1.57132       -4.92580        0.18148
H         -4.73357        1.39544        4.25673
H         -4.49339        2.71470        3.10992
H         -6.10803        2.05848        3.36901
H          3.82659       -4.33083        1.83527
H          4.29168       -3.76760        3.44205
H          2.59715       -3.75198        2.96237
H          1.18672        6.41667        0.20506
H         -0.26905        5.65303       -0.43936
H          0.30410        5.24316        1.17860
