115
-277.94236895
P         -1.97396       -0.29651       -0.12172
P          1.67050        0.81470       -0.22630
C         -1.84549       -2.07161        0.17355
C         -0.64053       -2.65077        0.51217
H          0.19978       -2.03930        0.79532
C         -0.49560       -4.02025        0.43245
H          0.46461       -4.48808        0.58856
C         -1.55563       -4.80950        0.01922
C         -2.79565       -4.22688       -0.18857
H         -3.61328       -4.84369       -0.52492
C         -2.94349       -2.85807       -0.10010
H         -3.88927       -2.39643       -0.33870
C         -3.54336        0.32274        0.51739
C         -4.21729       -0.33223        1.52198
H         -3.80018       -1.22923        1.95120
C         -5.40632        0.17872        1.99908
H         -5.93765       -0.31309        2.79858
C         -5.93002        1.34239        1.46794
C         -5.24357        1.99705        0.46501
H         -5.65494        2.91349        0.07265
C         -4.05292        1.48664       -0.01083
H         -3.51960        1.99525       -0.79691
C         -1.76235        0.23094       -1.85818
C         -1.24901        1.51301       -1.94989
H         -0.97034        2.03239       -1.04824
C         -0.93543        2.08397       -3.18341
C         -1.36438        1.42205       -4.32745
H         -1.16834        1.85785       -5.29284
C         -1.87986        0.14445       -4.24490
H         -2.08433       -0.40092       -5.15062
C         -1.97696       -0.51896       -3.02197
C          1.42625        0.27428       -1.95383
C          0.90773       -1.00497       -2.00055
H          0.65386       -1.49756       -1.07950
C          0.55111       -1.60587       -3.20667
C          0.94104       -0.97312       -4.38060
H          0.71481       -1.43301       -5.32804
C          1.46182        0.30502       -4.34496
H          1.63822        0.82742       -5.27000
C          1.60155        0.99780       -3.14188
C         -1.96856       -2.03106       -3.05487
H         -2.62591       -2.37202       -3.86257
H         -2.43883       -2.40880       -2.15026
C         -0.53170       -2.65193       -3.22875
H         -0.32962       -3.39652       -2.45157
H         -0.46626       -3.21607       -4.16589
C          0.14377        3.12938       -3.28412
H          0.00240        3.87738       -2.49730
H          0.01456        3.69204       -4.21567
C          1.58796        2.50910       -3.21513
H          2.17679        2.83232       -4.08159
H          2.13534        2.92246       -2.37155
C          2.18090        2.53641       -0.17071
C          1.24185        3.52414        0.03209
C          3.46473        2.85510       -0.56089
C          1.55295        4.83188       -0.27685
C          3.76795        4.16220       -0.88991
C          2.79178        5.14545       -0.81180
C          2.99589       -0.15229        0.52536
C          3.72618       -1.00906       -0.26557
C          3.28473       -0.03770        1.86460
C          4.74075       -1.76039        0.28929
H          3.50008       -1.09394       -1.31593
C          4.29833       -0.78819        2.42148
H          2.71028        0.63619        2.47786
C          5.03356       -1.65299        1.63571
H          5.31123       -2.44952       -0.31285
H          4.52743       -0.72444        3.47373
Pd        -0.21011        0.59516        1.15745
Cl        -1.71313        0.17949        2.78328
Cl         1.04171        1.84967        2.55072
H          4.72425        4.40753       -1.32315
H          4.18984        2.07052       -0.71186
H          0.80230        5.60573       -0.23091
H          0.24967        3.27005        0.36700
C         -2.49186       -7.12329       -0.42577
C         -1.25315       -6.18546       -0.51832
C         -0.76972       -5.97077       -1.98698
F         -2.11951       -8.37495       -0.73593
F         -2.94621       -7.07502        0.83526
F         -3.44444       -6.69605       -1.26615
F         -0.25668       -6.74479        0.17231
F          0.39245       -5.30649       -1.93264
F         -0.60910       -7.15398       -2.59491
F         -1.66691       -5.21464       -2.63455
C         -8.29214        0.84052        2.17278
C         -7.20342        1.94180        2.00869
C         -6.88443        2.66674        3.34715
F         -8.38607        0.18851        1.00421
F         -7.92636       -0.01222        3.13996
F         -9.46423        1.42012        2.47453
F         -7.67761        2.85367        1.15519
F         -6.00452        3.64224        3.07463
F         -8.01227        3.18738        3.85368
F         -6.33938        1.79135        4.20479
C          5.48806       -3.94999        2.46460
C          6.08466       -2.52656        2.27123
C          7.37928       -2.53569        1.40565
F          6.41388       -4.75378        3.00908
F          4.43240       -3.83336        3.28434
F          5.08595       -4.42453        1.27635
F          6.40747       -2.05198        3.47754
F          7.72389       -1.25899        1.18006
F          8.35482       -3.16623        2.07775
F          7.13709       -3.15219        0.24045
C          4.36842        6.89336       -1.76014
C          2.89504        6.41227       -1.62455
C          2.23477        6.08522       -3.00269
F          4.38371        8.10264       -2.34208
F          4.88751        6.96769       -0.52567
F          5.06518        6.01244       -2.49116
F          2.19072        7.38937       -1.04846
F          0.94154        5.81881       -2.77410
F          2.36018        7.13252       -3.82851
F          2.81652        4.99389       -3.51895
