58
-89.86462601
P          1.51008        0.17293        0.71962
C          1.49233        1.96632        0.62879
C          1.49627        2.54830       -0.61792
C          1.49441        3.92543       -0.73808
C          1.49819        4.71145        0.39709
C          1.51097        4.12411        1.64712
C          1.51165        2.74568        1.76316
H          1.52783        2.27737        2.73366
H          1.51346        1.91382       -1.48980
C          3.15660       -0.43473        0.32259
C          4.22752        0.41883        0.46265
C          5.50513       -0.02314        0.16921
C          5.70099       -1.31990       -0.26252
C          4.62437       -2.17329       -0.40111
C          3.34836       -1.72847       -0.10606
H          2.50103       -2.38393       -0.22442
H          4.05833        1.42983        0.79733
C          1.08434       -0.47003        2.38909
C          0.47139       -1.85868        2.28504
C         -1.02856       -1.85890        2.02940
P         -1.61896       -0.87987        0.57727
C         -1.72603        0.88690        0.91547
C         -1.75065        1.38288        2.19853
C         -1.84455        2.74638        2.40740
C         -1.92540        3.60570        1.33007
C         -1.92127        3.10394        0.04450
C         -1.82647        1.73940       -0.16046
H         -1.83013        1.33186       -1.15940
H         -1.71859        0.70825        3.03756
C         -3.32193       -1.41234        0.30189
C         -4.23808       -1.13404        1.29220
C         -5.55596       -1.53133        1.14783
C         -5.94998       -2.20663        0.00995
C         -5.03097       -2.48174       -0.98259
C         -3.71729       -2.08157       -0.83271
H         -2.99657       -2.27487       -1.60736
H         -3.91936       -0.60162        2.17455
Pd         0.16685       -0.71951       -0.95624
Cl         1.73090       -0.19415       -2.47925
Cl        -1.16479       -1.73634       -2.43654
H         -1.39256       -2.87735        1.87162
H         -1.56545       -1.47675        2.89902
H          0.98112       -2.41297        1.48533
H          0.67966       -2.42957        3.20364
H          2.01858       -0.47690        2.95655
H          0.41240        0.22348        2.89323
H          1.49202        4.38167       -1.71425
H          1.51774        4.73859        2.53235
H          6.34431        0.64449        0.27543
H          4.77645       -3.18394       -0.74282
H         -1.85609        3.13771        3.41143
H         -1.98679        3.77251       -0.79801
H         -6.27252       -1.31298        1.92253
H         -5.33709       -3.00391       -1.87426
H          1.49463        5.78552        0.30749
H          6.69523       -1.66572       -0.49415
H         -1.99249        4.66903        1.49277
H         -6.97592       -2.51665       -0.10465
