111
-148.55819760
P         -2.68275       -1.87538       -0.41737
P          0.16079       -0.49210       -0.45942
C         -1.82425       -1.63809       -1.99614
C         -0.56333       -1.08139       -2.00332
C         -3.64544       -3.45453       -0.37338
C         -2.94293       -4.50571        0.45802
C         -2.42354       -2.00060       -3.18536
H         -3.41693       -2.41822       -3.17616
C         -1.75162       -1.81049       -4.38070
H         -2.21854       -2.09328       -5.31002
C         -0.48577       -1.25631       -4.38477
H          0.03560       -1.10534       -5.31566
C          0.10847       -0.88582       -3.19194
H          1.08853       -0.43557       -3.17848
Pd        -1.07734       -1.54502        1.19821
Cl        -2.54612       -2.13781        2.78518
Cl         0.60089       -1.13760        2.63550
C         -5.01038       -3.00406        0.17998
C         -4.03491       -0.65124       -0.10153
H         -3.51353       -5.43683        0.48971
H         -1.95015       -4.72870        0.05986
H         -2.81387       -4.16423        1.48614
H         -5.00572       -3.12829        1.27175
H         -5.81101       -3.66303       -0.18920
H         -3.87662       -0.28264        0.92098
C         -5.30712       -1.51732       -0.16870
C         -3.99905        0.48952       -1.09528
H         -3.74675       -3.78935       -1.41345
H         -5.72288       -1.45600       -1.18386
H         -6.08463       -1.10662        0.49328
H         -4.08654        0.11624       -2.11724
H         -4.81752        1.19308       -0.92632
H         -3.06065        1.04259       -1.02805
C         -1.40597        3.72123        0.24922
C         -0.97040        2.93626        1.34720
C         -0.48496        1.66689        1.08992
C         -0.37626        1.19534       -0.19098
C         -0.68672        1.99164       -1.26147
C         -1.16249        3.27896       -1.07693
O         -2.12663        4.92337        0.47783
C         -1.07511        3.41031        2.80416
H         -0.20056        1.00972        1.89302
H         -0.57461        1.58341       -2.25065
C         -1.44480        4.15069       -2.30995
C          4.70774       -0.65910       -0.37272
C          4.04730        0.45772       -0.94576
C          2.66258        0.47526       -0.93563
C          1.94500       -0.58932       -0.45625
C          2.57664       -1.71700       -0.00297
C          3.95951       -1.79795        0.02203
O          6.11172       -0.62163       -0.16098
C          4.80303        1.65566       -1.54201
H          2.12003        1.33436       -1.29138
H          1.96904       -2.53064        0.35395
C          4.62199       -3.09329        0.51665
C         -0.91122        4.93731        2.90582
C         -2.43523        2.98191        3.37634
C          0.04258        2.77735        3.66448
C         -0.45464        3.81436       -3.44853
C         -2.87407        3.88290       -2.80567
C         -1.26524        5.64542       -1.98843
C         -3.53630        4.74532        0.54197
H         -0.92444        5.26452        3.94516
H          0.03307        5.25200        2.46281
H         -1.71247        5.45778        2.38721
H         -2.53599        3.28984        4.41667
H         -3.25549        3.42201        2.81417
H         -2.54721        1.89865        3.33235
H         -0.09775        1.70399        3.78296
H          1.02073        2.94777        3.21560
H          0.05286        3.20985        4.66462
H         -0.56667        4.51287       -4.27746
H          0.57490        3.87493       -3.09657
H         -0.62181        2.81528       -3.84814
H         -3.10317        4.48865       -3.68200
H         -2.99750        2.83520       -3.07895
H         -3.60777        4.11289       -2.03657
H         -1.98564        5.98156       -1.24703
H         -0.26742        5.83575       -1.59453
H         -1.40056        6.25719       -2.88001
H         -3.79352        3.69326        0.41229
H         -3.90496        5.09256        1.50705
H         -4.01631        5.33521       -0.23867
C          6.49297       -0.08485        1.09965
C          6.14184        1.21530       -2.16121
C          3.97825        2.31183       -2.67333
C          5.04460        2.70209       -0.44354
C          5.97457       -3.32876       -0.17990
C          4.81467       -3.01280        2.03872
C          3.73384       -4.31740        0.19737
H          6.81416        0.81205       -1.40815
H          5.98116        0.44327       -2.91296
H          6.64749        2.05414       -2.63885
H          3.67623        1.57077       -3.41303
H          3.08294        2.79891       -2.28979
H          4.56282        3.07618       -3.18486
H          5.64318        2.29284        0.36663
H          5.56624        3.57231       -0.84110
H          4.09933        3.03965       -0.01900
H          6.68853       -2.54598        0.06325
H          6.41204       -4.27916        0.12480
H          5.85114       -3.34351       -1.26226
H          5.45659       -2.17873        2.31146
H          3.85758       -2.87101        2.54029
H          5.26674       -3.92616        2.42441
H          2.81596       -4.31354        0.78328
H          4.25633       -5.24522        0.42925
H          3.46783       -4.33829       -0.85915
H          7.06138       -0.82884        1.65750
H          7.13006        0.78644        0.94885
H          5.61071        0.20364        1.67249
