111
-148.56061378
P         -2.44191       -2.33276       -0.39381
P         -0.02894       -0.28710       -0.48089
C         -1.59693       -2.01380       -1.96127
C         -0.55446       -1.11435       -1.99495
C         -2.77746       -4.13301       -0.13996
C         -1.84368       -4.71459        0.89925
C         -2.00162       -2.64635       -3.11905
H         -2.82505       -3.34115       -3.08610
C         -1.35391       -2.37637       -4.31230
H         -1.66790       -2.86977       -5.21760
C         -0.30906       -1.47264       -4.34471
H          0.19408       -1.26094       -5.27379
C          0.09007       -0.83715       -3.18244
H          0.90205       -0.12699       -3.19147
Pd        -1.25451       -1.23741        1.24378
Cl        -2.71005       -1.96505        2.78781
Cl        -0.02128       -0.10108        2.73620
C         -4.26619       -4.15152        0.25489
C         -4.16792       -1.66632       -0.36060
H         -1.96323       -4.20267        1.85583
H         -2.04228       -5.77599        1.06567
H         -0.79855       -4.60698        0.59865
H         -4.33959       -4.12184        1.35084
H         -4.73155       -5.10227       -0.04675
H         -4.26481       -1.12530        0.59013
C         -5.03434       -2.93991       -0.34603
C         -4.42334       -0.74551       -1.53512
H         -2.63073       -4.62013       -1.11250
H         -5.33731       -3.17364       -1.37588
H         -5.97124       -2.75850        0.20223
H         -4.31688       -1.28312       -2.47892
H         -5.43255       -0.32809       -1.50465
H         -3.71136        0.08286       -1.55270
C         -1.08072        4.14369       -0.51338
C          0.06736        3.68534       -1.21333
C          0.36632        2.33327       -1.16629
C         -0.46916        1.44611       -0.53880
C         -1.65306        1.86562        0.01067
C         -2.00598        3.20459        0.01423
O         -1.25871        5.53010       -0.27132
C          0.98872        4.59721       -2.04164
H          1.27074        1.95817       -1.61537
H         -2.30118        1.13511        0.46277
C         -3.37277        3.58756        0.60650
C          4.39578       -0.91986        0.41624
C          3.69969        0.16904        1.00409
C          2.35456        0.31974        0.71128
C          1.72029       -0.51431       -0.17132
C          2.41591       -1.49614       -0.82802
C          3.76723       -1.69391       -0.59567
O          5.68064       -1.28378        0.89482
C          4.34260        1.19173        1.95585
H          1.77333        1.08598        1.19625
H          1.88744       -2.11778       -1.53029
C          4.50336       -2.72552       -1.46769
C          0.37229        5.98425       -2.29333
C          2.33576        4.75770       -1.31847
C          1.23145        3.95416       -3.42496
C         -4.45742        2.62577        0.07318
C         -3.31275        3.47170        2.13874
C         -3.80203        5.01136        0.21203
C         -0.61428        5.96666        0.91393
H          0.99499        6.57508       -2.96471
H         -0.61642        5.88982       -2.74101
H          0.26655        6.54308       -1.36662
H          2.20411        5.20197       -0.33358
H          2.82143        3.79181       -1.18657
H          3.01040        5.39626       -1.88813
H          1.76547        3.00889       -3.34387
H          0.28552        3.76399       -3.93131
H          1.82677        4.61027       -4.05946
H         -4.30335        1.60787        0.42666
H         -5.44808        2.93502        0.40543
H         -4.45786        2.61210       -1.01636
H         -2.57154        4.15013        2.55627
H         -4.27716        3.71140        2.58566
H         -3.04413        2.46013        2.44199
H         -3.78364        5.13204       -0.87054
H         -4.81090        5.22889        0.56189
H         -3.13740        5.75688        0.64210
H         -1.03168        5.45146        1.77735
H          0.45211        5.75313        0.86070
H         -0.76237        7.04058        1.02919
C          5.62443       -2.22001        1.95835
C          5.87975        1.13265        1.93310
C          3.94155        2.61917        1.52325
C          3.83889        0.93805        3.38663
C          6.03263       -2.57931       -1.38141
C          4.09687       -4.14456       -1.03767
C          4.11378       -2.51556       -2.94818
H          6.31242        1.92911        2.53809
H          6.24425        0.18674        2.32626
H          6.25323        1.23725        0.91504
H          4.42760        3.36609        2.15037
H          4.23958        2.80268        0.49171
H          2.86770        2.78138        1.59943
H          4.25762        1.66469        4.08226
H          2.75300        1.01219        3.43623
H          4.11816       -0.05600        3.73062
H          6.39545       -2.81109       -0.38286
H          6.53172       -3.25281       -2.07773
H          6.33505       -1.55982       -1.61817
H          3.02012       -4.28523       -1.12727
H          4.58604       -4.89449       -1.65879
H          4.37149       -4.33632       -0.00228
H          3.05810       -2.71679       -3.12243
H          4.68180       -3.18131       -3.59749
H          4.31698       -1.49061       -3.25733
H          5.05261       -1.80836        2.78856
H          5.14414       -3.13786        1.62377
H          6.63714       -2.44481        2.29362
