45
-71.82115527
C          0.39947        1.47751        3.15008
P         -0.16986        0.76511        1.57143
P         -0.14556        0.80267       -1.56419
C          0.42640        1.54580       -3.12783
Cl         2.93965       -0.19227        1.62218
H         -0.42629        1.53591        3.85332
H          0.81267        2.54409       -2.94311
Cl         3.02000        0.09084       -1.60520
C         -1.33608        1.82972        0.69642
C         -1.32808        1.84319       -0.68171
C         -2.24252        2.61045       -1.37397
C         -3.16410        3.37337       -0.67876
C         -3.17203        3.35985        0.70264
C         -2.25856        2.58312        1.39321
H         -2.23533        2.60322       -2.45179
H         -3.87845        3.97514       -1.21617
H         -3.89267        3.95090        1.24353
H         -2.26429        2.55385        2.47069
Pd         1.50241        0.42871        0.01290
H         -0.39516        1.60626       -3.83580
H          0.79778        2.47434        2.98382
H          1.21645        0.93561       -3.55623
C         -1.70650       -3.44337       -1.96112
C         -2.59455       -2.40429       -1.76123
C         -2.12592       -1.10673       -1.66046
C         -0.77685       -0.86118       -1.76610
C          0.11237       -1.89175       -1.96514
C         -0.35257       -3.19010       -2.06356
H         -2.07081       -4.45509       -2.03338
H         -3.64994       -2.60392       -1.67469
H         -2.80287       -0.28604       -1.48571
H          1.16679       -1.67035       -2.02066
H          0.34102       -4.00109       -2.21296
C         -1.82815       -3.45178        1.89807
C         -0.46596       -3.23617        1.97157
C          0.03008       -1.94824        1.89413
C         -0.83522       -0.88955        1.74439
C         -2.19266       -1.09791        1.66832
C         -2.69295       -2.38512        1.74812
H         -2.21715       -4.45531        1.95411
H          0.20964       -4.06825        2.08251
H          1.09079       -1.75620        1.93017
H         -2.85212       -0.25587        1.53274
H         -3.75517       -2.55494        1.68448
H          1.17974        0.85176        3.57400
