171
-217.84117081
P         -1.58729        0.37270       -0.44132
P          1.63937       -0.29346       -0.30271
C         -0.85110        1.43734       -1.68524
C          1.04092       -1.19503       -1.73296
C          0.03911        0.92305       -2.62122
C          0.68801        1.81652       -3.49529
C          0.38608        3.16692       -3.43370
C         -0.52768        3.65101       -2.52222
C         -1.13709        2.78047       -1.64092
C          1.30744       -2.53923       -1.82523
C          0.81962       -3.27237       -2.88872
C          0.05378       -2.65003       -3.85138
C         -0.22418       -1.29498       -3.77733
C          0.29241       -0.54250       -2.70535
Cl         1.42983        0.26971        2.94318
Cl        -1.76763       -0.51488        2.66109
C         -1.03796       -0.65146       -4.84428
C          1.69478        1.34331       -4.48351
H         -0.75793        4.70342       -2.48917
H         -1.84071        3.15213       -0.91398
H          1.90485       -3.01779       -1.06653
H          1.03625       -4.32539       -2.96483
H          0.88012        3.84310       -4.11100
H         -0.33567       -3.21908       -4.67866
C         -3.73091       -3.32720       -1.91695
C         -2.76699       -3.45321       -0.92364
C         -2.09676       -2.30639       -0.51978
C         -2.37761       -1.09408       -1.09801
C         -3.33145       -0.98490       -2.08055
C         -4.04012       -2.10408       -2.50207
H         -4.26612       -4.20234       -2.23072
H         -1.36816       -2.35267        0.27177
H         -3.54351       -0.01453       -2.49769
C         -4.54724        2.57926        2.20429
C         -3.21533        2.97720        2.21150
C         -2.33518        2.31865        1.36323
C         -2.77045        1.29443        0.55935
C         -4.08748        0.90856        0.57337
C         -5.00502        1.54139        1.40090
H         -5.24297        3.08414        2.84606
H         -1.29398        2.59302        1.34342
H         -4.40031        0.09525       -0.05742
C          4.14520       -2.87261        2.47540
C          2.82451       -3.23115        2.23310
C          2.09398       -2.45323        1.34461
C          2.65651       -1.35223        0.74742
C          3.95746       -1.00434        1.01364
C          4.72951       -1.75599        1.88926
H          4.73105       -3.47454        3.14256
H          1.06770       -2.69467        1.12788
H          4.37095       -0.13012        0.54313
C          4.00230        3.41975       -1.33727
C          2.86990        3.54443       -0.54183
C          2.15369        2.39186       -0.24394
C          2.55050        1.18001       -0.75091
C          3.66216        1.07499       -1.55071
C          4.42603        2.19757       -1.84639
H          4.57324        4.30367       -1.55023
H          1.28255        2.42702        0.38722
H          3.94396        0.10657       -1.92985
Pd        -0.05574       -0.02835        1.29026
C         -0.97238       -5.12914       -0.43318
C         -2.45745       -4.78574       -0.22799
C         -3.30660       -5.94051       -0.79267
C         -2.75800       -4.64826        1.27662
H         -0.71208       -6.05822        0.07350
H         -0.74978       -5.24850       -1.49290
H         -0.33041       -4.34078       -0.04441
H         -3.06734       -6.87725       -0.28938
H         -4.37049       -5.75223       -0.64962
H         -3.11925       -6.08092       -1.85710
H         -2.53897       -5.57549        1.80574
H         -2.16337       -3.85634        1.72949
H         -3.80823       -4.40617        1.43791
C         -5.88920       -3.28408       -3.80045
C         -5.16828       -1.94811       -3.53414
C         -4.58669       -1.43721       -4.86277
C         -6.20260       -0.93847       -3.00256
H         -6.69301       -3.15149       -4.52458
H         -5.20254       -4.02754       -4.20484
H         -6.33146       -3.68012       -2.88643
H         -5.37233       -1.30361       -5.60628
H         -4.08624       -0.47865       -4.73154
H         -3.86481       -2.14833       -5.26281
H         -6.60056       -1.26565       -2.04215
H         -5.75809        0.04652       -2.86645
H         -7.03723       -0.83257       -3.69534
C         -2.31138        5.30827        2.23176
C         -2.69192        4.10537        3.11142
C         -1.45351        3.61148        3.88645
C         -3.75084        4.55638        4.13607
H         -3.18214        5.68365        1.69450
H         -1.90690        6.12198        2.83346
H         -1.56195        5.02945        1.49313
H         -0.63426        3.35779        3.21574
H         -1.09168        4.37689        4.57259
H         -1.69428        2.72193        4.46809
H         -4.62479        4.97905        3.64109
H         -4.07410        3.72065        4.75647
H         -3.34701        5.32360        4.79661
C         -7.28663        1.75618        2.51137
C         -6.47025        1.08249        1.39146
C         -6.53286       -0.44380        1.60067
C         -7.09820        1.44594        0.03506
H         -7.32883        2.83638        2.37393
H         -8.31231        1.38745        2.51716
H         -6.85360        1.54772        3.48957
H         -6.04435       -0.98042        0.78843
H         -6.03959       -0.72421        2.53108
H         -7.56563       -0.78854        1.64839
H         -7.07260        2.52361       -0.12532
H         -6.55658        0.97531       -0.78380
H         -8.13686        1.11985       -0.01619
C          0.74892       -4.10798        3.36083
C          2.17421       -4.45910        2.88672
C          2.97661       -4.93913        4.11234
C          2.11278       -5.59586        1.85319
H          0.09531       -3.86973        2.52413
H          0.29937       -4.94316        3.89750
H          0.76634       -3.24690        4.02861
H          2.46215       -5.75840        4.61448
H          3.96213       -5.30377        3.82448
H          3.10329       -4.13234        4.83410
H          1.56256       -5.28582        0.96627
H          3.11512       -5.88358        1.53649
H          1.62162       -6.47638        2.26696
C          7.02444       -1.63194        0.90443
C          6.18471       -1.34723        2.16085
C          6.78404       -2.12902        3.34623
C          6.24718        0.15624        2.49784
H          8.06333       -1.33730        1.05173
H          7.00418       -2.69365        0.65919
H          6.63706       -1.08541        0.04634
H          6.18580       -1.99082        4.24673
H          6.84158       -3.19516        3.12846
H          7.79570       -1.78632        3.56329
H          5.92685        0.77026        1.65735
H          5.60301        0.38652        3.34616
H          7.26322        0.45595        2.75398
C          1.14130        4.85012        0.78637
C          2.47020        4.91905        0.01081
C          2.30088        5.91284       -1.15359
C          3.56964        5.41774        0.96536
H          0.33896        4.48264        0.14768
H          1.22502        4.19276        1.65138
H          0.85346        5.83662        1.14941
H          3.23461        6.05383       -1.69633
H          1.55453        5.55300       -1.86074
H          1.97801        6.88811       -0.78971
H          3.30946        6.38821        1.38759
H          3.71009        4.71743        1.78859
H          4.52318        5.52187        0.44875
C          5.37043        1.56360       -4.08904
C          5.71489        2.04793       -2.67004
C          6.63475        1.01913       -1.98639
C          6.47939        3.38138       -2.78087
H          4.76206        2.30146       -4.61051
H          6.27497        1.40367       -4.67565
H          4.81892        0.62438       -4.06290
H          6.17159        0.03383       -1.96048
H          7.58101        0.92589       -2.51904
H          6.85244        1.31861       -0.96134
H          5.88175        4.13613       -3.29166
H          6.74961        3.76094       -1.79557
H          7.40048        3.25255       -3.34924
H         -1.74542       -1.35944       -5.27590
H          2.55284        2.01511       -4.50476
H         -0.40360       -0.28643       -5.65257
H         -1.60695        0.19269       -4.45206
H          1.27293        1.31204       -5.48883
H          2.06122        0.34617       -4.23573
