58
-89.86926292
P          1.59682        0.28842        0.92467
C          2.97293        1.40689        0.64795
C          4.18120        0.91860        0.20609
C          5.23364        1.78785       -0.01743
C          5.06603        3.14093        0.20228
C          3.85079        3.62628        0.64380
C          2.79998        2.75422        0.86712
H          1.84176        3.11932        1.20213
H          4.29407       -0.13927        0.03211
C          1.97555       -1.35994        0.31090
C          2.21329       -2.41660        1.16005
C          2.47081       -3.67136        0.63821
C          2.49834       -3.85817       -0.72981
C          2.27896       -2.79191       -1.57872
C          2.02008       -1.53981       -1.05334
H          1.85314       -0.69165       -1.69885
H          2.21356       -2.25941        2.22586
C          1.19402        0.31854        2.71547
C          0.03516       -0.57924        3.11084
C         -1.32393       -0.07047        2.66301
P         -1.63739       -0.20781        0.85743
C         -3.28877        0.42354        0.54598
C         -4.26650       -0.41271        0.05781
C         -5.53332        0.08305       -0.19223
C         -5.80991        1.41465        0.04761
C         -4.82464        2.25038        0.53560
C         -3.55845        1.75140        0.78527
H         -2.77535        2.39416        1.15580
H         -4.03301       -1.44795       -0.13143
C         -1.46821       -1.88899        0.23793
C         -1.40588       -2.06477       -1.12610
C         -1.24825       -3.33215       -1.65487
C         -1.16021       -4.41999       -0.80960
C         -1.24141       -4.24305        0.55760
C         -1.40093       -2.97344        1.08268
H         -1.48919       -2.83140        2.14693
H         -1.48580       -1.20216       -1.76887
Pd        -0.11632        0.89432       -0.50994
Cl         1.38417        1.75899       -1.93892
Cl        -1.82402        1.25926       -1.92732
H         -2.13416       -0.62180        3.14659
H         -1.45166        0.97848        2.93635
H          0.19926       -1.58562        2.70839
H          0.03164       -0.70317        4.20512
H          2.11379        0.03404        3.23250
H          0.98888        1.35571        2.98665
H          6.18045        1.40946       -0.36617
H          3.71840        4.68275        0.80982
H          2.64938       -4.50293        1.29996
H          2.30466       -2.93404       -2.64652
H         -6.30065       -0.56819       -0.57738
H         -5.03890        3.29075        0.71709
H         -1.19046       -3.46797       -2.72224
H         -1.18021       -5.09381        1.21621
H          5.88416        3.81997        0.02538
H          2.69477       -4.83719       -1.13549
H         -6.79559        1.80333       -0.15006
H         -1.03154       -5.40922       -1.21764
