111
-148.55537555
P         -2.23231       -2.14028       -1.33699
P          0.14162       -0.18335       -0.58157
C         -1.14017       -1.51468       -2.63474
C         -0.12226       -0.64655       -2.30508
C         -2.34395       -3.98486       -1.35522
C         -1.45668       -4.59717       -0.29232
C         -1.32386       -1.90038       -3.94686
H         -2.11172       -2.59403       -4.19220
C         -0.49311       -1.39886       -4.93379
H         -0.63655       -1.69640       -5.95971
C          0.51866       -0.51745       -4.60454
H          1.16516       -0.12574       -5.37254
C          0.70611       -0.14253       -3.28600
H          1.49651        0.53867       -3.01521
Pd        -1.44202       -1.32999        0.66666
Cl        -3.25046       -2.16042        1.70189
Cl        -0.43369       -0.73731        2.58061
C         -3.84949       -4.23319       -1.15236
C         -4.01821       -1.70552       -1.57839
H         -1.74981       -4.25381        0.70165
H         -1.52270       -5.68766       -0.29658
H         -0.41014       -4.31955       -0.44035
H         -4.04949       -4.31978       -0.07528
H         -4.14051       -5.20207       -1.58625
H         -4.33247       -1.22885       -0.64039
C         -4.70313       -3.07705       -1.74524
C         -4.22262       -0.77233       -2.75488
H         -2.03229       -4.30544       -2.35787
H         -4.86941       -3.26096       -2.81539
H         -5.70590       -3.06009       -1.29245
H         -5.26567       -0.45865       -2.83977
H         -3.60320        0.12240       -2.67140
H         -3.95251       -1.26267       -3.69112
C         -1.26799        4.06491        0.25716
C         -2.16790        3.10365       -0.27224
C         -1.68085        1.83739       -0.55540
C         -0.39274        1.49054       -0.23746
C          0.43067        2.37070        0.41568
C          0.01452        3.65831        0.70582
O         -1.62409        5.43909        0.28775
C         -3.64984        3.40799       -0.54087
H         -2.30757        1.09609       -1.02002
H          1.41099        2.03696        0.70362
C          0.96028        4.59844        1.46859
C          4.38368       -0.97413        0.88691
C          4.14628        0.08641       -0.02443
C          2.84663        0.30786       -0.44905
C          1.82277       -0.51631       -0.05772
C          2.07044       -1.61358        0.72493
C          3.34525       -1.89135        1.18838
O          5.64567       -1.09459        1.52726
C          5.26480        1.01321       -0.52705
H          2.61479        1.14588       -1.08296
H          1.24169       -2.24479        0.99450
C          3.56723       -3.14545        2.04767
C         -3.83345        3.75159       -2.02647
C         -4.51677        2.17719       -0.19243
C         -4.15945        4.56759        0.33460
C          0.17037        5.61916        2.30786
C          1.84643        3.79786        2.44992
C          1.86529        5.32971        0.46586
C         -1.30312        6.13420       -0.91040
H         -4.87781        3.96552       -2.25214
H         -3.24268        4.62320       -2.30179
H         -3.51474        2.92221       -2.65738
H         -4.32380        1.34349       -0.86296
H         -4.32239        1.84393        0.82670
H         -5.57742        2.41400       -0.27212
H         -3.65733        5.50019        0.09075
H         -5.22889        4.72364        0.19511
H         -3.98141        4.35867        1.38892
H          0.84003        6.24035        2.90210
H         -0.41745        6.28057        1.67589
H         -0.51321        5.11046        2.98675
H          2.55248        3.15564        1.92660
H          2.43041        4.46854        3.07974
H          1.23521        3.17366        3.10123
H          2.56589        5.98752        0.97956
H          2.44118        4.61772       -0.12498
H          1.27883        5.93498       -0.22209
H         -0.71454        7.01967       -0.66987
H         -0.73260        5.49048       -1.58111
H         -2.21800        6.45246       -1.40962
C          5.74503       -0.37112        2.74766
C          6.61033        0.26908       -0.60534
C          4.95035        1.52283       -1.95208
C          5.38328        2.22456        0.41037
C          3.33303       -2.79353        3.52464
C          2.57859       -4.26441        1.64626
C          4.98637       -3.70876        1.85249
H          6.52253       -0.61717       -1.23287
H          7.38730        0.90706       -1.02581
H          6.94510       -0.05094        0.37811
H          5.79711        2.07334       -2.36143
H          4.73626        0.69090       -2.62255
H          4.09669        2.19894       -1.96009
H          6.17711        2.89550        0.08310
H          4.45204        2.78955        0.42825
H          5.60264        1.91543        1.42957
H          2.32157       -2.41617        3.67392
H          3.46501       -3.66842        4.16060
H          4.02503       -2.02547        3.86141
H          2.81949       -5.19543        2.15880
H          1.55318       -4.01121        1.91156
H          2.62017       -4.45245        0.57371
H          5.74279       -3.00484        2.19036
H          5.17354       -3.92054        0.80031
H          5.12198       -4.63272        2.41407
H          5.98413       -1.05675        3.56044
H          6.54735        0.36281        2.67431
H          4.80520        0.13788        2.96561
