111
-148.55464816
P         -2.62897       -2.01063       -0.19498
P          0.08679       -0.41572       -0.53021
C         -1.87459       -1.85102       -1.83673
C         -0.67072       -1.19307       -1.96948
C         -3.44087       -3.65672        0.04065
C         -2.62117       -4.55150        0.94452
C         -2.49964       -2.37221       -2.95145
H         -3.45043       -2.86845       -2.84629
C         -1.90948       -2.23989       -4.19672
H         -2.39671       -2.64674       -5.06777
C         -0.69955       -1.58491       -4.32545
H         -0.24194       -1.47971       -5.29535
C         -0.07992       -1.05516       -3.20781
H          0.85658       -0.52600       -3.29150
Pd        -0.99479       -1.34965        1.29135
Cl        -2.37956       -1.92390        2.95801
Cl         0.74027       -0.67049        2.55008
C         -4.82694       -3.27759        0.59501
C         -4.07394       -0.88632        0.07384
H         -3.10158       -5.52220        1.08782
H         -1.62326       -4.72329        0.53393
H         -2.49601       -4.09808        1.92885
H         -4.78438       -3.29813        1.69276
H         -5.57380       -4.03559        0.31379
H         -3.91922       -0.42419        1.05815
C         -5.26493       -1.86160        0.12241
C         -4.16493        0.16946       -1.00639
H         -3.53817       -4.10275       -0.95726
H         -5.70632       -1.93082       -0.88137
H         -6.06141       -1.46103        0.76786
H         -4.24983       -0.29088       -1.99248
H         -5.03539        0.81396       -0.86349
H         -3.27498        0.80173       -1.01537
C         -1.38366        3.87576       -0.13365
C         -0.73505        3.24126        0.95635
C         -0.31925        1.93208        0.79462
C         -0.44799        1.28907       -0.40731
C         -0.96852        1.93574       -1.49706
C         -1.41612        3.24297       -1.40314
O         -2.03756        5.12227        0.05482
C         -0.50776        3.92725        2.31175
H          0.09907        1.37908        1.61757
H         -1.03720        1.39537       -2.42459
C         -1.96087        3.94107       -2.65901
C          4.61002       -0.82470       -0.23989
C          4.00880        0.45581       -0.14054
C          2.63039        0.53981       -0.23487
C          1.86723       -0.56972       -0.48681
C          2.45014       -1.79400       -0.68242
C          3.82530       -1.94840       -0.60710
O          5.98728       -0.98785        0.06627
C          4.81545        1.73872        0.11355
H          2.12828        1.48025       -0.09132
H          1.80909       -2.63556       -0.88238
C          4.43801       -3.33018       -0.88441
C         -0.34378        5.44885        2.14733
C         -1.69158        3.61645        3.24013
C          0.78966        3.40493        2.97132
C         -3.47214        3.68802       -2.76934
C         -1.67861        5.45388       -2.61623
C         -1.27630        3.39001       -3.93046
C         -3.39203        5.00473        0.47224
H         -0.11868        5.92414        3.10175
H          0.46771        5.67438        1.45620
H         -1.24950        5.90651        1.75786
H         -1.55578        4.08221        4.21579
H         -2.62708        3.97941        2.82072
H         -1.79104        2.54154        3.39004
H          1.63416        3.49621        2.28895
H          1.02300        3.97434        3.87061
H          0.70129        2.36121        3.26863
H         -3.68010        2.62119       -2.84581
H         -4.00032        4.06712       -1.89782
H         -3.88583        4.17531       -3.65186
H         -2.00517        5.93979       -3.53532
H         -2.19922        5.93094       -1.78950
H         -0.61257        5.64199       -2.49312
H         -1.55864        2.35624       -4.12464
H         -1.56458        3.96977       -4.80704
H         -0.19154        3.43889       -3.83881
H         -3.51668        5.46843        1.45055
H         -4.03785        5.52396       -0.23578
H         -3.68327        3.95501        0.52853
C          6.24472       -1.27358        1.43548
C          4.10724        2.96196       -0.51347
C          4.93732        1.96811        1.62776
C          6.21257        1.65300       -0.52688
C          4.49567       -4.13182        0.42483
C          3.57918       -4.11227       -1.90430
C          5.84696       -3.20240       -1.49171
H          3.17478        3.19601       -0.00196
H          4.73734        3.84873       -0.44871
H          3.88637        2.78466       -1.56570
H          3.95161        2.05321        2.08456
H          5.45414        1.14283        2.11140
H          5.48931        2.88303        1.84136
H          6.76003        2.58658       -0.39957
H          6.80665        0.86010       -0.07963
H          6.13329        1.44898       -1.59416
H          3.49819       -4.25220        0.84684
H          4.91396       -5.12401        0.25743
H          5.10974       -3.62937        1.16820
H          3.41014       -3.52013       -2.80336
H          4.07585       -5.03601       -2.20037
H          2.61154       -4.38948       -1.48887
H          5.82084       -2.59749       -2.39745
H          6.25324       -4.18043       -1.74838
H          6.53798       -2.73205       -0.79676
H          6.76287       -2.22875        1.51888
H          6.88736       -0.50051        1.85636
H          5.31034       -1.31577        1.99675
