72
-98.09827559
Fe         0.01029        2.84809        0.06973
P          1.82187       -0.05401       -0.12536
P         -1.83685       -0.00953       -0.05518
C          1.38916        1.52605        0.69421
C          0.37024        1.71394        1.71199
C          0.35071        3.11780        2.08349
C          1.36830        3.80246        1.30737
C          2.00426        2.82030        0.44519
C         -1.44965        1.67134       -0.67624
C         -2.00517        2.92423       -0.18615
C         -1.37147        4.01351       -0.90972
C         -0.43888        3.43546       -1.85950
C         -0.49920        1.99094       -1.72444
C          3.32825       -0.70534        0.73701
C          4.46658       -0.00053       -0.01932
C          2.60815        0.31819       -1.77309
C          4.12656        0.19685       -1.51936
C         -3.11023       -0.73543       -1.19255
C         -4.36463        0.04988       -0.77612
C         -2.97818        0.18913        1.40615
C         -4.36425        0.38805        0.74457
H         -0.26439        0.93063        2.12634
H         -0.30061        3.57302        2.83309
H          1.61671        4.86447        1.36569
H          2.82476        3.01060       -0.25016
H         -2.75970        3.02788        0.59621
H          0.04747        1.26527       -2.32466
Cl         1.52309       -3.10614        0.40179
Cl        -1.62374       -3.08899        0.18352
Pd        -0.02790       -1.49754        0.09477
H          3.36652       -1.78500        0.55515
C          3.33498       -0.42041        2.23528
H          2.34845        1.36663       -1.96942
C          2.11306       -0.56674       -2.91850
H          5.40878       -0.55711        0.10218
H          4.64264        0.97775        0.45020
H          4.65103        1.07705       -1.92027
H          4.52218       -0.64871       -2.09544
H         -1.57546        5.07834       -0.77567
H          0.17939        3.98759       -2.57092
H          4.32360       -0.67444        2.64239
H          1.05317       -0.36077       -3.10607
H         -3.22217       -1.79256       -0.92626
C         -2.75298       -0.60184       -2.66896
H         -2.65986        1.09234        1.94019
C         -2.97233       -1.00405        2.36217
H         -5.27515       -0.50077       -1.05936
H         -4.39463        0.98039       -1.36195
H         -4.72423        1.41483        0.90689
H         -5.09461       -0.25153        1.25964
H         -3.65297       -0.78305       -3.27293
H         -3.12888       -1.92023        1.77877
C          2.25351       -1.16599        2.99647
H          2.34437       -2.24488        2.85819
H          2.28941       -0.96431        4.06941
H          1.26407       -0.87973        2.64319
C          2.30556       -2.05950       -2.69754
H          1.78736       -2.39789       -1.80170
H          1.92068       -2.64831       -3.53344
H          3.35631       -2.32415       -2.57477
C         -1.64432       -1.54716       -3.10019
H         -0.74012       -1.38336       -2.51586
H         -1.93311       -2.58910       -2.94983
H         -1.38368       -1.42484       -4.15389
C         -1.71842       -1.12511        3.21083
H         -1.54558       -0.22065        3.79705
H         -1.77812       -1.96233        3.91006
H         -0.83797       -1.28960        2.59322
H          3.22958        0.66143        2.38980
H          2.62569       -0.26395       -3.84210
H         -2.47371        0.43962       -2.87375
H         -3.84839       -0.93175        3.02176
