64
-97.22190126
Cl        -1.25509       -0.20098       -2.85250
Cl         1.76955       -1.34964       -2.88097
P          1.96098       -0.67302        0.30896
C          2.10905       -2.41896        0.91198
C          3.75769       -0.31045        0.00572
P         -1.26392       -0.25839        0.38060
C          1.22211        0.45964        1.54116
C         -0.21769        0.62898        1.59987
C         -0.51331        1.61134        2.63288
C          0.75082        2.07619        3.17703
C          1.82433        1.36038        2.50966
H         -1.50631        1.91881        2.96562
H          0.87188        2.80970        3.97738
Pd         0.30495       -0.69345       -1.32066
H          2.89381        1.47024        2.69977
C         -5.13207        1.83468       -0.83024
C         -4.82715        0.57710       -1.31129
C         -3.64810       -0.03885       -0.93060
C         -2.77797        0.60349       -0.07941
C         -3.08702        1.85275        0.40866
C         -4.26314        2.47350        0.03158
H         -6.04893        2.31743       -1.12703
H         -5.50351        0.07611       -1.98421
H         -3.39590       -1.01989       -1.30171
H         -2.40486        2.34385        1.07910
H         -4.49989        3.45463        0.40949
C         -2.45861       -4.33666        1.98425
C         -2.48611       -3.22956        2.80990
C         -2.12656       -1.98977        2.31154
C         -1.74073       -1.87039        0.99639
C         -1.71978       -2.96769        0.16655
C         -2.07796       -4.20794        0.66266
H         -2.73755       -5.30307        2.37152
H         -2.78547       -3.32996        3.84023
H         -2.13700       -1.11437        2.94194
H         -1.42922       -2.84998       -0.86499
H         -2.06057       -5.07126        0.01791
C          4.02947        0.49651       -1.24588
H          4.10805        0.22898        0.89552
C          4.38086       -1.71684       -0.03301
H          5.44911       -1.67036        0.22836
C          3.62269       -2.69977        0.89553
H          4.34564       -2.08770       -1.06688
C          1.48388       -2.56782        2.28220
H          1.59007       -3.04141        0.17090
H          4.01104       -2.60566        1.91866
H          3.81603       -3.74298        0.60419
H          1.97049       -1.90582        3.00122
H          0.42505       -2.30701        2.26777
H          1.57483       -3.59071        2.65483
H          3.65992        1.51794       -1.15906
H          5.10042        0.55424       -1.45127
H          3.55375        0.03928       -2.11383
Fe         0.68099        2.37507        1.14714
C         -0.32103        3.91827        0.23682
C         -0.20332        2.78526       -0.66326
C          1.20388        2.49500       -0.84417
C          1.96149        3.43102       -0.03313
C          1.01968        4.31938        0.62773
H         -1.24982        4.40864        0.53693
H         -1.01980        2.27364       -1.17638
H          1.60378        1.74093       -1.52358
H          3.05019        3.49163        0.03479
H          1.27518        5.15268        1.28651
