171
-217.84569552
P         -1.60466        0.38052       -0.43151
P          1.65451       -0.36456       -0.26939
C         -0.83460        1.37104       -1.71663
C          1.02572       -1.29620       -1.67184
C          0.03931        0.79650       -2.63260
C          0.69877        1.63144       -3.55508
C          0.42597        2.98918       -3.55498
C         -0.46989        3.53425       -2.65980
C         -1.09010        2.72045       -1.73204
C          1.26701       -2.64798       -1.71479
C          0.74291       -3.41679       -2.73519
C         -0.03937       -2.82386       -3.70307
C         -0.29489       -1.46308       -3.67914
C          0.26234       -0.67492       -2.65378
Cl         1.39939        0.19582        2.94714
Cl        -1.75470       -0.49779        2.67928
C         -1.13802       -0.85823       -4.74695
C          1.67181        1.08084       -4.53843
H         -0.68045        4.59106       -2.67875
H         -1.77749        3.13949       -1.01479
H          1.87091       -3.10596       -0.94861
H          0.94175       -4.47540       -2.77196
H          0.92581        3.62191       -4.26896
H         -0.46161       -3.42059       -4.49400
C         -3.72978       -3.36516       -1.80335
C         -2.81130       -3.45396       -0.76400
C         -2.14955       -2.29453       -0.38539
C         -2.39977       -1.10711       -1.02582
C         -3.30945       -1.03332       -2.05136
C         -3.99831       -2.16956       -2.46004
H         -4.26998       -4.24372       -2.10166
H         -1.45012       -2.31224        0.43288
H         -3.48706       -0.07790       -2.51507
C         -4.56297        2.78652        2.02579
C         -3.20755        3.07859        2.13604
C         -2.31977        2.35399        1.35215
C         -2.77338        1.36785        0.51239
C         -4.11306        1.08662        0.42235
C         -5.03922        1.79571        1.17417
H         -5.26303        3.33621        2.62478
H         -1.26136        2.54316        1.41652
H         -4.43937        0.29386       -0.22797
C          4.36582       -2.86415        2.37226
C          3.02760       -3.22419        2.25473
C          2.22254       -2.46612        1.41497
C          2.73325       -1.38120        0.74780
C          4.05108       -1.02829        0.89135
C          4.89902       -1.76758        1.70375
H          5.00631       -3.44784        3.00469
H          1.18168       -2.71185        1.29056
H          4.42035       -0.15953        0.37494
C          3.85552        3.46877       -1.20846
C          2.80337        3.50529       -0.30096
C          2.11288        2.32436       -0.06567
C          2.47949        1.16337       -0.69963
C          3.52534        1.14078       -1.58843
C          4.23719        2.30285       -1.86210
H          4.40936        4.36733       -1.40426
H          1.28937        2.30431        0.62699
H          3.78800        0.20475       -2.05156
Pd        -0.06671       -0.04998        1.26333
C         -2.81448       -4.55019        1.49140
C         -2.52550       -4.75861       -0.00774
C         -1.04735       -5.13800       -0.20007
C         -3.40066       -5.91897       -0.51791
H         -2.17867       -3.77397        1.91518
H         -3.85129       -4.25208        1.64532
H         -2.63863       -5.46684        2.05399
H         -0.80266       -6.04897        0.34579
H         -0.82900       -5.30650       -1.25395
H         -0.39078       -4.34515        0.15487
H         -3.21123       -6.11910       -1.57236
H         -3.18845       -6.83448        0.03420
H         -4.45994       -5.69543       -0.39236
C         -5.15735       -0.73469       -4.21508
C         -5.08337       -2.12099       -3.54515
C         -6.44748       -2.42276       -2.89800
C         -4.78094       -3.17115       -4.63085
H         -5.91373       -0.72454       -4.99976
H         -5.42417        0.03727       -3.49367
H         -4.20489       -0.46660       -4.67078
H         -6.45802       -3.41365       -2.44515
H         -6.67195       -1.69651       -2.11683
H         -7.24789       -2.38319       -3.63662
H         -5.52098       -3.12862       -5.42985
H         -3.79966       -3.00101       -5.07203
H         -4.79308       -4.18109       -4.22329
C         -1.70426        3.42971        4.10717
C         -2.65580        4.12521        3.11438
C         -3.78037        4.81193        3.91230
C         -1.88571        5.20142        2.32867
H         -0.86031        2.97089        3.59345
H         -1.30703        4.14029        4.83159
H         -2.22598        2.64416        4.65322
H         -4.34101        4.08748        4.50272
H         -3.36999        5.55059        4.60076
H         -4.47300        5.32902        3.24848
H         -1.04146        4.76775        1.79625
H         -2.53317        5.68261        1.59590
H         -1.49793        5.97092        2.99597
C         -6.72800       -0.02957        1.47789
C         -6.52714        1.43745        1.05315
C         -6.97566        1.61728       -0.40948
C         -7.40508        2.33255        1.94816
H         -7.77912       -0.31202        1.42220
H         -6.16628       -0.70821        0.83680
H         -6.38987       -0.18271        2.50249
H         -8.03439        1.38563       -0.52440
H         -6.81670        2.64437       -0.73736
H         -6.41797        0.96287       -1.07839
H         -7.29898        3.38274        1.67678
H         -8.45767        2.06950        1.84388
H         -7.13973        2.21746        2.99890
C          3.35428       -4.92492        4.11819
C          2.42854       -4.43259        2.98862
C          2.22218       -5.57399        1.97884
C          1.07378       -4.04381        3.61647
H          3.57315       -4.12039        4.82012
H          2.88610       -5.73585        4.67604
H          4.29574       -5.30461        3.72234
H          1.77209       -6.44389        2.45680
H          1.57047       -5.26042        1.16474
H          3.17309       -5.88004        1.54310
H          0.33408       -3.79625        2.85686
H          0.66945       -4.86390        4.20943
H          1.18649       -3.17827        4.26896
C          6.41757        0.09492        2.41259
C          6.36545       -1.33403        1.83949
C          7.03211       -1.35812        0.45115
C          7.15307       -2.26786        2.77790
H          7.44761        0.42650        2.54225
H          5.91979        0.80506        1.75310
H          5.92313        0.13800        3.38278
H          6.98491       -2.35733        0.01867
H          6.53858       -0.67285       -0.23693
H          8.08030       -1.06683        0.51615
H          8.19129       -1.94651        2.86066
H          6.72685       -2.26628        3.78093
H          7.15365       -3.29121        2.40301
C          3.44065        5.89867        0.28306
C          2.37878        4.79079        0.42385
C          2.18181        4.50353        1.92642
C          1.05815        5.28937       -0.18355
H          3.55739        6.20497       -0.75613
H          3.15448        6.78282        0.85264
H          4.40780        5.56118        0.65543
H          1.93370        5.41617        2.46801
H          1.37508        3.79270        2.09813
H          3.09113        4.08947        2.36139
H          0.70754        6.18910        0.32171
H          1.18602        5.52245       -1.24029
H          0.28286        4.52908       -0.10090
C          5.27441        3.39551       -3.87653
C          5.45636        2.31358       -2.79510
C          5.64916        0.95367       -3.49476
C          6.71627        2.61842       -1.96431
H          4.36478        3.22121       -4.44989
H          5.20735        4.39032       -3.43828
H          6.11458        3.39646       -4.57077
H          6.50123        0.98558       -4.17364
H          5.83755        0.16155       -2.77046
H          4.77023        0.68456       -4.07964
H          6.85313        1.87022       -1.18369
H          7.60742        2.61948       -2.59170
H          6.64417        3.59313       -1.48288
H         -1.54946        0.10226       -4.43375
H          1.21729        0.98571       -5.52543
H         -1.97576       -1.50997       -4.99615
H         -0.55841       -0.69747       -5.65689
H          2.03198        0.09684       -4.23516
H          2.53983        1.73394       -4.63218
