105
-153.06653674
Cl        -0.79588        2.58548       -2.68897
Pd        -0.05977        1.71221       -0.75081
P          1.09425        0.59528        0.98801
N          0.45082       -0.81142        1.84462
C         -0.08057       -2.06107        1.54492
C         -0.05727       -2.65655        0.26107
C         -0.70677       -3.88890        0.04691
C         -0.68302       -4.49294       -1.33782
C         -1.06745       -5.97986       -1.37952
C         -2.31502       -6.24349       -0.53075
C         -2.07279       -5.84778        0.93438
C         -1.35330       -4.53270        1.10357
C         -1.32045       -3.95765        2.36742
C         -0.69641       -2.75637        2.58469
H         -0.70891       -2.31403        3.56577
H         -1.80671       -4.46516        3.18341
H         -3.02595       -5.80012        1.47661
H         -3.15462       -5.66120       -0.93107
H         -1.22163       -6.31609       -2.41461
H         -1.36218       -3.92128       -1.98075
C          0.69067       -2.04278       -0.86070
C         -0.00640       -1.22557       -1.78301
C          0.70097       -0.67108       -2.85234
C          2.01982       -0.98706       -3.05832
C          2.69360       -1.86727       -2.21703
C          4.10743       -2.25983       -2.57860
C          4.82030       -3.15752       -1.55027
C          3.84870       -4.13672       -0.88386
C          2.71228       -3.37312       -0.18997
C          2.02967       -2.38980       -1.10525
H          1.97248       -4.07606        0.21229
H          4.37413       -4.79133       -0.17414
H          5.28074       -2.53315       -0.77609
H          4.69019       -1.34649       -2.75080
H          2.54416       -0.57094       -3.90179
H          0.18298       -0.00711       -3.52161
N         -1.39982       -1.03826       -1.66832
P         -1.96149        0.34891       -0.74828
C         -2.59104       -0.05526        0.87453
C         -3.25634       -1.23601        1.10574
C         -3.75030       -1.50789        2.36848
C         -3.59478       -0.59238        3.40019
C         -2.93670        0.60189        3.13991
C         -2.44083        0.87218        1.87659
H         -1.94639        1.80734        1.66272
H         -2.82078        1.32135        3.93259
C         -4.08922       -0.90438        4.76948
H         -4.25363       -2.43977        2.56206
H         -3.38654       -1.94485        0.30464
C         -3.19187        1.28879       -1.64513
C         -3.77878        2.39841       -1.08593
C         -4.70853        3.11944       -1.81316
C         -5.04741        2.73770       -3.10483
C         -4.44769        1.60882       -3.64744
C         -3.51811        0.88919       -2.91787
H         -3.03271        0.02141       -3.33546
H         -4.70851        1.29991       -4.64518
C         -6.06218        3.50404       -3.87975
H         -5.17542        3.98804       -1.38115
H         -3.50728        2.69770       -0.08643
H         -1.92902       -1.79553       -1.25494
H          0.57716       -0.60935        2.82891
C          1.21771        1.88139        2.25110
C          0.29064        1.94989        3.26339
C          0.39723        2.92170        4.24108
C          1.43975        3.83711        4.21546
C          2.38287        3.74005        3.20229
C          2.27111        2.76521        2.22816
H          3.00345        2.69462        1.44029
H          3.20576        4.43392        3.17973
C          1.56987        4.87241        5.27783
H         -0.32998        2.97287        5.03344
H         -0.50927        1.23214        3.29730
C          2.79774        0.28912        0.51774
C          3.36260        0.85386       -0.60124
C          4.70848        0.67438       -0.85903
C          5.50109       -0.06797        0.00507
C          4.91828       -0.61612        1.13987
C          3.57019       -0.43442        1.39496
H          3.11521       -0.84363        2.28350
H          5.52641       -1.18017        1.82614
C          6.95612       -0.23574       -0.26378
H          5.15535        1.12143       -1.73058
H          2.75752        1.45767       -1.25624
Cl         1.49308        3.32064       -0.55211
H         -1.48973       -6.62957        1.43571
H         -0.23388       -6.58141       -0.99575
H         -2.62322       -7.29586       -0.60704
H          0.31416       -4.35203       -1.77287
H          3.42534       -4.80386       -1.64518
H          3.10277       -2.83398        0.67961
H          4.07949       -2.77065       -3.54865
H          5.65419       -3.69866       -2.01911
H         -4.33774        0.00630        5.31624
H         -4.98677       -1.52333        4.73214
H         -3.33186       -1.44369        5.34014
H         -7.06538        3.11928       -3.69144
H         -6.04961        4.56029       -3.60735
H         -5.87136        3.43745       -4.95174
H          2.17839        4.50444        6.10502
H          2.04034        5.77690        4.88976
H          0.59380        5.15271        5.67629
H          7.36015       -1.09971        0.26574
H          7.14332       -0.38273       -1.32850
H          7.51292        0.64552        0.05746
