115
-277.94164937
P         -2.02613       -0.39595       -0.02069
P          1.60114        0.66852       -0.33797
C         -1.81692       -2.17998        0.17373
C         -0.57215       -2.72349        0.41339
H          0.26237       -2.09171        0.66707
C         -0.37781       -4.08010        0.26165
H          0.60751       -4.51330        0.34076
C         -1.42746       -4.89440       -0.12689
C         -2.69940       -4.35590       -0.23639
H         -3.51006       -4.99141       -0.55406
C         -2.89652       -3.00026       -0.07234
H         -3.87385       -2.57018       -0.22747
C         -3.56433        0.15412        0.74421
C         -4.19106       -0.57773        1.72659
H         -3.75202       -1.50106        2.06856
C         -5.36021       -0.11088        2.29303
H         -5.86062       -0.66174        3.07377
C         -5.90870        1.08479        1.87264
C         -5.27067        1.81416        0.88790
H         -5.70492        2.75023        0.57255
C         -4.09988        1.35033        0.32617
H         -3.60454        1.91836       -0.44432
C         -1.92519        0.24292       -1.73181
C         -1.39305        1.51963       -1.78356
H         -1.04221        1.97952       -0.87503
C         -1.15533        2.15992       -3.00004
C         -1.68106        1.57869       -4.14749
H         -1.54570        2.07013       -5.09647
C         -2.21895        0.30851       -4.10458
H         -2.50241       -0.17543       -5.02381
C         -2.24165       -0.42749       -2.92028
C          1.24227        0.23153       -2.07526
C          0.69212       -1.03196       -2.16386
H          0.48764       -1.57532       -1.25986
C          0.23674       -1.54971       -3.37501
C          0.55769       -0.85304       -4.53342
H          0.25391       -1.24812       -5.48837
C          1.11037        0.40975       -4.45718
H          1.23383        0.98527       -5.35898
C          1.35044        1.02347       -3.22719
C         -2.27306       -1.93392       -3.04334
H         -3.00709       -2.21227       -3.80777
H         -2.67102       -2.35413       -2.12279
C         -0.87162       -2.56922       -3.38026
H         -0.62519       -3.37245       -2.67783
H         -0.89743       -3.06376       -4.35768
C         -0.06116        3.18825       -3.11740
H         -0.11917        3.88156       -2.27224
H         -0.25043        3.81775       -3.99434
C          1.36782        2.53627       -3.20954
H          1.88894        2.89938       -4.10328
H          1.99689        2.88733       -2.39512
C          2.20137        2.35919       -0.23940
C          1.32873        3.37993        0.06935
C          3.47104        2.63500       -0.70208
C          1.68408        4.68467       -0.20282
C          3.81733        3.94042       -0.99375
C          2.89880        4.96408       -0.80764
C          2.91216       -0.38827        0.30692
C          3.54177       -1.28066       -0.53028
C          3.29102       -0.29386        1.62471
C          4.54915       -2.08843       -0.04290
H          3.24809       -1.34372       -1.56511
C          4.29658       -1.09913        2.11304
H          2.79661        0.41042        2.27272
C          4.92767       -2.00534        1.28242
H          5.05808       -2.79320       -0.68130
H          4.60720       -1.03452        3.14446
Pd        -0.16977        0.44261        1.17427
Cl        -1.59922       -0.08777        2.83511
Cl         1.13169        1.68450        2.52730
H          4.75467        4.16012       -1.47909
H          4.14479        1.82512       -0.93517
H          0.97755        5.48995       -0.07271
H          0.34857        3.15738        0.45798
C         -2.28807       -7.22898       -0.61301
C         -1.09969       -6.23198       -0.74061
C         -0.71705       -5.93611       -2.22461
F         -3.31317       -6.80856       -1.36702
F         -1.88414       -8.44666       -1.00727
F         -2.65760       -7.25901        0.67599
F         -0.03840       -6.77179       -0.13639
F         -0.51123       -7.08500       -2.88245
F         -1.69967       -5.22463       -2.79336
F          0.39871       -5.19398       -2.21038
C         -6.85291        2.86096        3.34970
C         -7.17869        1.59650        2.50356
C         -8.23708        1.87916        1.39701
F         -5.97768        2.49561        4.29873
F         -6.30102        3.79305        2.55946
F         -7.97943        3.32417        3.91210
F         -7.68829        0.67554        3.32611
F         -7.80961        2.87975        0.61442
F         -8.36928        0.75953        0.66996
F         -9.40633        2.19752        1.97301
C          7.29877       -1.99470        2.05202
C          6.04311       -2.87725        1.79945
C          5.57460       -3.62846        3.08013
F          8.29655       -2.76082        2.51834
F          7.64535       -1.44491        0.87821
F          6.99211       -1.02956        2.93107
F          6.36893       -3.79689        0.88692
F          6.50801       -4.52553        3.43331
F          5.37209       -2.74566        4.06815
F          4.42287       -4.24970        2.78405
C          4.49179        6.67820       -1.79129
C          3.00930        6.25977       -1.57304
C          2.24233        6.02574       -2.91444
F          5.09506        6.67927       -0.59335
F          5.09507        5.79662       -2.60049
F          4.52654        7.90797       -2.32777
F          2.39437        7.24190       -0.90974
F          0.95689        5.80311       -2.60787
F          2.35805        7.10469       -3.70001
F          2.73779        4.93674       -3.51802
