87
-129.18930552
P         -1.64287       -0.34397       -0.21553
P          1.62824        0.35841       -0.08546
C         -1.36010        0.96410       -1.42544
C          1.42120       -0.67034       -1.54889
C         -0.36123        0.86872       -2.39020
C         -0.13817        1.96381       -3.24785
C         -0.93196        3.09159       -3.12865
C         -1.92609        3.16245       -2.17735
C         -2.13189        2.09663       -1.32416
C          2.20372       -1.79335       -1.66736
C          2.05142       -2.63840       -2.74862
C          1.10341       -2.35454       -3.70785
C          0.30110       -1.23053       -3.60813
C          0.46717       -0.36049       -2.51243
Cl         1.28791        0.62375        3.12784
Cl        -1.48096       -1.00741        2.94418
H         -2.53413        4.04826       -2.09326
H         -2.90239        2.15043       -0.57352
H          2.93962       -2.01206       -0.91181
H          2.66573       -3.51940       -2.83751
H         -0.75857        3.92425       -3.78909
H          0.97359       -3.01529       -4.54815
C         -1.44935       -4.50967       -2.01734
C         -0.68626       -4.21804       -0.89500
C         -0.77053       -2.94280       -0.35032
C         -1.59179       -1.99441       -0.91498
C         -2.35522       -2.29483       -2.01843
C         -2.28469       -3.55982       -2.57213
H         -1.38117       -5.49024       -2.45670
C          0.24440       -5.22391       -0.31517
H         -0.18285       -2.69303        0.51647
H         -2.98684       -1.53454       -2.45044
H         -2.87359       -3.80025       -3.44206
C         -5.55040        0.41572        1.99948
C         -5.45218       -0.64971        1.12655
C         -4.26660       -0.88514        0.45634
C         -3.19104       -0.05249        0.65921
C         -3.28609        1.00783        1.53118
C         -4.46669        1.25409        2.22121
H         -6.47355        0.60218        2.52130
H         -6.29801       -1.29868        0.96883
H         -4.17414       -1.71785       -0.22117
H         -2.43203        1.64522        1.69203
C         -4.56526        2.41038        3.15288
C          5.23007       -1.05591        2.31827
C          5.25785        0.18178        1.70644
C          4.16932        0.61245        0.97179
C          3.06324       -0.19592        0.85403
C          3.03197       -1.42800        1.46617
C          4.12002       -1.88094        2.20212
H          6.07269       -1.38933        2.89977
H          6.12442        0.81462        1.80646
H          4.17325        1.58051        0.49858
H          2.15112       -2.04317        1.38373
C          4.06717       -3.19888        2.89098
C          1.85319        4.77440       -1.12034
C          2.69544        3.87755       -1.74807
C          2.63781        2.53449       -1.42462
C          1.74125        2.10412       -0.47511
C          0.90925        2.99589        0.16111
C          0.95374        4.34874       -0.15250
H          1.88606        5.81842       -1.38145
H          3.39050        4.22173       -2.49627
H          3.27440        1.81688       -1.91814
H          0.21120        2.64122        0.90044
C          0.01796        5.30493        0.49865
Pd        -0.05012       -0.09423        1.47214
C          0.93437        1.93760       -4.28113
C         -0.71872       -0.96947       -4.66179
H          0.51305        1.78465       -5.27539
H          1.48591        2.87872       -4.29224
H          1.65290        1.13942       -4.09196
H         -1.44748       -0.22573       -4.33780
H         -0.24871       -0.60592       -5.57635
H         -1.26669       -1.88051       -4.90624
H          1.24022       -5.12415       -0.74943
H          0.33477       -5.09751        0.76474
H         -0.10564       -6.24000       -0.50229
H         -4.76838        3.33244        2.60639
H         -5.36545        2.26574        3.88002
H         -3.63506        2.54458        3.70704
H          3.48289       -3.91884        2.31591
H          5.06658       -3.61483        3.02600
H          3.60622       -3.10122        3.87484
H         -0.90958        5.38554       -0.06993
H         -0.23459        4.98020        1.50913
H          0.45800        6.30053        0.57034
