87
-129.18628115
P         -1.68925       -0.36814       -0.11631
P          1.55481        0.32565       -0.19534
C         -1.44487        0.96637       -1.31416
C          1.30818       -0.65786       -1.67828
C         -0.49972        0.92517       -2.33771
C         -0.29779        2.07701       -3.12283
C         -1.06419        3.20478       -2.88604
C         -2.00690        3.22329       -1.88216
C         -2.18563        2.10372       -1.09394
C          2.10213       -1.75621       -1.90016
C          1.92309       -2.52235       -3.03485
C          0.94350       -2.17989       -3.94302
C          0.13028       -1.07763       -3.73701
C          0.31953       -0.29141       -2.58266
Cl         1.34464        1.10776        2.92849
Cl        -1.38724       -0.59941        3.14145
H         -2.59201        4.11048       -1.70327
H         -2.90663        2.12037       -0.29346
H          2.86852       -2.01313       -1.18812
H          2.54359       -3.38649       -3.20695
H         -0.90733        4.07996       -3.49359
H          0.79642       -2.77816       -4.82617
C         -0.86444       -4.58966       -1.58160
C         -0.34045       -4.17081       -0.36628
C         -0.62521       -2.88197        0.06709
C         -1.39585       -2.03954       -0.70110
C         -1.93514       -2.47188       -1.88941
C         -1.66717       -3.75353       -2.33294
H         -0.63959       -5.58162       -1.93468
C          0.54434       -5.05954        0.43463
H         -0.26468       -2.54596        1.02413
H         -2.54393       -1.79896       -2.47206
H         -2.07336       -4.09406       -3.27123
C         -5.82526       -0.04736        1.76402
C         -5.57389       -1.00874        0.80528
C         -4.31653       -1.10591        0.23925
C         -3.32008       -0.24477        0.63646
C         -3.57012        0.71532        1.58984
C         -4.82919        0.83176        2.16586
H         -6.80099        0.02400        2.21364
H         -6.35532       -1.68566        0.50096
H         -4.10548       -1.85510       -0.50616
H         -2.77560        1.36922        1.90985
C         -5.07947        1.84577        3.22593
C          4.94161       -1.46726        2.27288
C          5.06605       -0.18832        1.76700
C          4.04399        0.35827        1.01425
C          2.90926       -0.37813        0.76828
C          2.78200       -1.65069        1.27533
C          3.79482       -2.21407        2.04078
H          5.73745       -1.89538        2.85817
H          5.95729        0.38542        1.96179
H          4.12306        1.35954        0.62391
H          1.88946       -2.21728        1.07351
C          3.65358       -3.59767        2.57046
C          2.39995        4.63866       -1.33660
C          3.13073        3.61720       -1.91130
C          2.88410        2.30545       -1.55051
C          1.91383        2.03062       -0.61571
C          1.19018        3.04545       -0.03442
C          1.42484        4.36906       -0.38608
H          2.58043        5.65980       -1.62634
H          3.88567        3.84032       -2.64727
H          3.43103        1.49288       -2.00274
H          0.42949        2.81105        0.69094
C          0.60885        5.46303        0.20656
Pd        -0.06262        0.12226        1.48278
C          0.73056        2.11573       -4.19998
C         -0.92641       -0.75403       -4.73524
H          1.28802        3.05301       -4.17032
H          1.45123        1.30413       -4.09506
H          0.26732        2.03220       -5.18378
H         -0.48786       -0.34833       -5.64775
H         -1.49314       -1.64658       -5.00427
H         -1.63373       -0.02087       -4.34603
H          0.45528       -4.84523        1.50060
H          0.28861       -6.10937        0.28507
H          1.58854       -4.92285        0.14967
H         -6.14214        2.07738        3.31027
H         -4.73509        1.48270        4.19527
H         -4.55289        2.77638        3.00919
H          4.34809       -3.78078        3.39146
H          2.64392       -3.76923        2.94667
H          3.85264       -4.33375        1.79027
H          0.28855        5.20942        1.21817
H          1.17648        6.39296        0.26171
H         -0.28402        5.64703       -0.39267
