45
-71.81621445
C          0.60438        1.70478        2.92306
P         -0.13192        0.75334        1.55128
P         -0.12897        0.92166       -1.57396
C          0.58185        1.91713       -2.92841
Cl         3.02416       -0.20254        1.52539
H          1.42525        1.14380        3.36070
H          1.39023        1.36902       -3.40410
Cl         2.95721       -0.31453       -1.63201
C         -1.40085        1.72975        0.72058
C         -1.39184        1.81563       -0.65349
C         -2.36582        2.53686       -1.31274
C         -3.34715        3.18718       -0.58525
C         -3.35283        3.10731        0.79409
C         -2.37851        2.37546        1.44991
H         -2.35719        2.58031       -2.38983
H         -4.10878        3.75321       -1.09587
H         -4.11783        3.61267        1.36030
H         -2.37581        2.30132        2.52540
Pd         1.48478        0.27594       -0.04300
H          0.97509        2.84864       -2.53134
H         -0.14184        1.89331        3.68945
H         -0.17942        2.14214       -3.66981
C         -1.84016       -3.10431       -2.81204
C         -1.85974       -2.69756       -1.49273
C         -1.33550       -1.46556       -1.14876
C         -0.79685       -0.65188       -2.11752
C         -0.77255       -1.05270       -3.43371
C         -1.29740       -2.28431       -3.78252
H         -2.24648       -4.06461       -3.08467
H         -2.27639       -3.33673       -0.73180
H         -1.32844       -1.13628       -0.12421
H         -0.34171       -0.40696       -4.18116
H         -1.27986       -2.60452       -4.81135
C         -1.66650       -3.30322        2.90632
C         -2.56734       -2.28977        2.64241
C         -2.10956       -1.04585        2.24760
C         -0.75689       -0.82717        2.12003
C          0.14422       -1.83324        2.38195
C         -0.30996       -3.07754        2.77788
H         -2.02315       -4.27307        3.21263
H         -3.62559       -2.46790        2.74066
H         -2.80037       -0.24871        2.02636
H          1.19787       -1.63651        2.25890
H          0.39314       -3.86858        2.98051
H          0.98245        2.65365        2.55337
