59
-75.81318535
Cl         1.61237        0.67456        2.29956
P          1.59381       -0.07222       -0.86920
P         -1.62274       -0.08680       -0.80020
C          0.57965        0.31604       -2.35888
H          0.32259        1.37816       -2.34867
H          1.18197        0.12879       -3.25339
C         -0.65632       -0.53465       -2.30907
H         -0.39410       -1.59439       -2.25191
H         -1.29520       -0.39767       -3.18750
C          2.49715       -1.66117       -1.20548
H          2.29150       -1.86771       -2.26454
C          3.05124        1.05585       -0.66509
H          3.17935        1.18709        0.41633
C         -2.94547       -1.33440       -0.44461
H         -3.31110       -1.10714        0.56451
C         -2.75665        1.31353       -1.25572
H         -2.28117        1.84669       -2.08804
C          3.98192       -1.29085       -1.03882
H          4.32094       -1.57794       -0.03633
H          4.60231       -1.87705       -1.73346
C          4.21563        0.22987       -1.23807
H          4.31151        0.45038       -2.31024
H          5.16810        0.54544       -0.78539
C         -4.00569       -0.94588       -1.48789
H         -3.76135       -1.45358       -2.43244
H         -4.99393       -1.33368       -1.19508
C         -4.05182        0.59474       -1.71418
H         -4.90053        1.01577       -1.15754
H         -4.26338        0.82079       -2.76980
C          2.01681       -2.83255       -0.35070
H          2.51139       -3.75187       -0.69408
H          0.94954       -2.99219       -0.55178
C          2.86626        2.41340       -1.33208
H          3.82742        2.94620       -1.33223
H          2.62278        2.25952       -2.39128
C         -2.48224       -2.78584       -0.51052
H         -3.36321       -3.44014       -0.56780
H         -1.94378       -2.94968       -1.45192
C         -3.00192        2.26906       -0.08946
H         -3.86532        2.90553       -0.32949
H         -3.31032        1.68154        0.78545
C          2.24104       -2.66749        1.14658
H          1.76545       -3.46657        1.72013
H          1.83867       -1.72308        1.51097
H          3.30089       -2.68078        1.40415
C          1.80275        3.26369       -0.65786
H          1.67959        4.23360       -1.14504
H          2.04977        3.44851        0.38931
H          0.83504        2.76365       -0.67289
C         -1.62257       -3.18399        0.67881
H         -1.26319       -4.21272        0.60270
H         -2.17936       -3.09798        1.61385
H         -0.75206       -2.53544        0.77268
C         -1.81050        3.14656        0.25769
H         -1.47669        3.72090       -0.60850
H         -2.04552        3.85800        1.05267
H         -0.96525        2.55301        0.60264
Cl        -1.62301        0.11756        2.35865
Pd         0.01736        0.12059        0.82665
