72
-108.39896806
Cl         1.82180       -0.73458        2.70192
Cl        -1.10366        0.38738        2.76907
P         -1.08757        1.16631       -0.27801
P          2.24555       -0.09753       -0.36756
C          3.25252        1.49433       -0.13848
C          3.61962        1.65243        1.33822
C          4.51309        1.44123       -0.99446
C          3.31783       -1.65220       -0.10942
C          4.11219       -1.96901       -1.38397
C          1.45554       -0.38967       -2.05853
C          1.53418        0.77119       -3.02857
C         -1.12063       -0.16955       -1.50801
C          0.03513       -0.91914       -1.99540
C         -0.48272       -1.98908       -2.85050
C         -1.92704       -1.87287       -2.91505
C         -2.31839       -0.74741       -2.08800
C          2.39728        2.68978       -0.53544
H          2.73217        1.63962        1.97093
H          4.28880        0.86959        1.68447
H          5.05398        2.38734       -0.93899
H          4.28000        1.25614       -2.04174
C          4.29575       -1.51583        1.05418
H          4.89388       -2.70104       -1.17411
H          4.59323       -1.08176       -1.79218
H          2.06047       -1.20097       -2.47314
H          0.88161        1.57947       -2.70772
H          1.18986        0.47412       -4.02132
H          2.54672        1.15742       -3.13714
H          0.12804       -2.68026       -3.43442
H         -2.59895       -2.50492       -3.49987
Pd         0.50520        0.27087        1.19395
H         -3.33557       -0.40033       -1.89453
C          2.33782       -2.78018        0.17536
H          3.48533       -2.40541       -2.16089
H          3.79207       -1.21213        1.96905
H          4.78042       -2.47190        1.25698
H          5.08690       -0.80207        0.83269
H          1.84352       -2.62534        1.13358
H          1.57650       -2.84010       -0.60378
H          2.85128       -3.74273        0.22066
H          4.12791        2.60327        1.50658
H          5.19379        0.66154       -0.65714
H          2.15489        2.68978       -1.59485
H          1.47024        2.69943        0.03528
H          2.91954        3.62535       -0.32801
C         -2.74889        1.26036        0.43642
C         -3.15539        2.19646        1.35456
C         -4.48766        1.91868        1.66061
C         -4.84142        0.82314        0.91251
O         -3.78333        0.40918        0.15610
H         -2.54815        2.97965        1.77745
H         -5.11456        2.45586        2.35345
H         -5.81227        0.34319        0.91285
C         -0.71581        2.77548       -0.99936
C         -0.66205        3.93922       -0.27217
C         -0.35284        4.96569       -1.16564
C         -0.23148        4.38424       -2.40374
O         -0.44824        3.03871       -2.31502
H         -0.81292        4.03321        0.79106
H         -0.23302        6.01048       -0.92982
H          0.00353        4.90202       -3.32539
Fe        -1.30953       -2.10869       -0.96901
C         -3.00652       -2.83726       -0.06544
C         -2.23490       -2.03400        0.86251
C         -0.92310       -2.63287        0.98295
C         -0.88237       -3.81040        0.13576
C         -2.17640       -3.94348       -0.50729
H         -4.04336       -2.65390       -0.35636
H         -2.57496       -1.13249        1.37466
H         -0.13772       -2.28336        1.65516
H         -0.04943       -4.51077        0.04498
H         -2.47624       -4.73946       -1.19216
