111
-148.55862909
P         -2.62400       -2.18485       -0.47403
P          0.01273       -0.44273       -0.39444
C         -1.59557       -2.04866       -1.95979
C         -0.43609       -1.30597       -1.91278
C         -3.37461       -3.86791       -0.30820
C         -2.69734       -4.66355        0.78631
C         -1.97022       -2.66771       -3.13520
H         -2.88941       -3.22891       -3.17316
C         -1.17152       -2.55091       -4.25972
H         -1.46201       -3.03527       -5.17767
C         -0.00483       -1.81254       -4.20778
H          0.61688       -1.72127       -5.08320
C          0.36166       -1.18392       -3.03133
H          1.26593       -0.59838       -2.97700
Pd        -1.33314       -1.36653        1.25047
Cl        -2.97980       -1.91133        2.67159
Cl         0.03618       -0.50834        2.80544
C         -4.85994       -3.55315       -0.04778
C         -4.15140       -1.14539       -0.56147
H         -1.63134       -4.79099        0.58292
H         -2.78826       -4.15514        1.74744
H         -3.14386       -5.65480        0.89434
H         -5.02743       -3.52077        1.03769
H         -5.49671       -4.36976       -0.42080
H         -4.21500       -0.61743        0.39921
C         -5.27639       -2.19146       -0.67439
C         -4.08283       -0.16620       -1.71432
H         -3.25326       -4.36532       -1.27865
H         -5.51914       -2.33648       -1.73607
H         -6.19945       -1.81179       -0.21045
H         -3.97584       -0.69427       -2.66361
H         -4.98682        0.44425       -1.77497
H         -3.22562        0.50420       -1.61713
C         -1.02315        3.98804       -0.65690
C         -0.03864        3.43424       -1.51449
C          0.25095        2.08477       -1.39529
C         -0.44579        1.28492       -0.52764
C         -1.47527        1.79449        0.22013
C         -1.81359        3.13493        0.15433
O         -1.18905        5.39646       -0.57879
C          0.73993        4.27558       -2.53789
H          1.04518        1.64046       -1.97019
H         -2.00525        1.13571        0.88353
C         -2.98939        3.64886        0.99987
C          4.45729       -0.75883        0.54652
C          3.80082       -1.84402       -0.08897
C          2.45201       -1.71787       -0.37934
C          1.75288       -0.59874       -0.00918
C          2.35831        0.40432        0.70100
C          3.70072        0.33740        1.03329
O          5.87281       -0.75430        0.66362
C          4.53867       -3.13015       -0.49225
H          1.92734       -2.49170       -0.91233
H          1.75965        1.24877        0.99707
C          4.30937        1.45262        1.89748
C          1.13083        3.41665       -3.76234
C         -0.11444        5.44241       -3.06578
C          2.02326        4.81024       -1.88421
C         -3.69033        4.83487        0.31324
C         -4.05496        2.54460        1.18745
C         -2.47118        4.06650        2.38446
C         -0.35784        6.02328        0.39030
H          1.87010        2.65949       -3.50546
H          0.25721        2.91593       -4.17898
H          1.56721        4.03591       -4.54575
H          0.41558        5.99774       -3.83921
H         -1.04663        5.07298       -3.49183
H         -0.36515        6.14222       -2.27274
H          1.79740        5.43131       -1.02065
H          2.65309        3.98819       -1.54528
H          2.60025        5.40899       -2.58848
H         -4.56134        5.15830        0.88263
H         -3.02436        5.68883        0.21822
H         -4.02245        4.55732       -0.68660
H         -4.94088        2.94261        1.68160
H         -4.36451        2.13778        0.22557
H         -3.68668        1.72720        1.80550
H         -3.28506        4.42347        3.01493
H         -1.99827        3.22365        2.88813
H         -1.73322        4.86117        2.30618
H         -0.97652        6.55331        1.11429
H          0.25128        5.28045        0.90705
H          0.29163        6.74943       -0.09824
C          6.54190       -0.12657       -0.42288
C          3.57486       -4.33833       -0.48599
C          5.10877       -2.96553       -1.90915
C          5.66994       -3.45384        0.50067
C          4.81018        2.58580        0.98951
C          3.24887        2.02743        2.86502
C          5.46233        0.91549        2.76455
H          3.05504       -4.41425        0.46873
H          2.83091       -4.26480       -1.27786
H          4.11978       -5.26858       -0.64516
H          4.31144       -2.76348       -2.62409
H          5.81307       -2.13849       -1.95669
H          5.62817       -3.86868       -2.22852
H          6.14973       -4.40049        0.25350
H          6.43780       -2.68419        0.49168
H          5.28045       -3.52532        1.51563
H          5.24094        3.39586        1.57747
H          5.57059        2.23083        0.29798
H          3.99109        2.99596        0.39948
H          3.70491        2.71808        3.57388
H          2.47481        2.57971        2.33420
H          2.77123        1.22988        3.43358
H          5.12273        0.08307        3.37998
H          5.85009        1.69034        3.42537
H          6.28811        0.56172        2.15244
H          7.12466        0.71801       -0.05574
H          7.22647       -0.83553       -0.88828
H          5.82124        0.22290       -1.16331
