59
-75.80658254
Cl         1.68946        0.52761        2.27557
P          1.56492       -0.00022       -0.84847
P         -1.62324       -0.08413       -0.76364
C          0.57252       -0.00120       -2.40561
H          0.32760        1.03016       -2.66839
H          1.18827       -0.40608       -3.21472
C         -0.67778       -0.80233       -2.17958
H         -0.43209       -1.83759       -1.92760
H         -1.32565       -0.82122       -3.06138
C          2.67435       -1.48419       -0.79165
H          2.65477       -1.92527       -1.79567
C          2.83920        1.34343       -0.74378
H          2.79255        1.72200        0.28473
C         -3.12734       -1.09651       -0.37688
H         -3.33730       -0.89899        0.68192
C         -2.51764        1.44638       -1.30778
H         -1.88755        1.98347       -2.02688
C          4.06019       -0.88516       -0.49449
H          4.23837       -0.92858        0.58876
H          4.85147       -1.49993       -0.94967
C          4.16012        0.58843       -0.97136
H          4.40153        0.61230       -2.04305
H          4.99016        1.10907       -0.46971
C         -4.22647       -0.47656       -1.26969
H         -4.54507       -1.21844       -2.01540
H         -5.12380       -0.27648       -0.66580
C         -3.76101        0.83024       -1.98259
H         -4.57677        1.56816       -2.00999
H         -3.53032        0.61125       -3.03660
C          2.19868       -2.49920        0.23904
H          1.15670       -2.76646        0.02207
H          2.17568       -2.01761        1.22571
C          2.59668        2.48316       -1.72619
H          3.49189        3.11937       -1.76625
H          2.49524        2.06584       -2.73640
C         -2.91710       -2.59071       -0.58628
H         -3.88608       -3.10418       -0.51397
H         -2.57754       -2.76193       -1.61581
C         -2.87519        2.34528       -0.12367
H         -3.68841        3.02194       -0.42160
H         -3.30066        1.71881        0.67153
C          3.05758       -3.75407        0.28402
H          2.69108       -4.47471        1.01867
H          4.09113       -3.51907        0.54423
H          3.07560       -4.25383       -0.68635
C          1.38151        3.32225       -1.36722
H          0.48134        2.70985       -1.31794
H          1.20031        4.11773       -2.09362
H          1.50142        3.79063       -0.38837
C         -1.93799       -3.19218        0.40876
H         -2.29857       -3.08158        1.43321
H         -0.97155       -2.69165        0.35941
H         -1.76903       -4.25655        0.23055
C         -1.71071        3.16148        0.41488
H         -0.88619        2.52452        0.73363
H         -1.32260        3.84268       -0.34431
H         -2.00125        3.76694        1.27642
Cl        -1.61971       -0.02501        2.40509
Pd         0.01422        0.03193        0.87257
