58
-89.86503641
P          1.57445        0.14277        0.70254
C          1.53676        1.93619        0.61688
C          1.50510        2.52318       -0.62706
C          1.47785        3.90049       -0.74119
C          1.49150        4.68195        0.39704
C          1.53916        4.08993        1.64403
C          1.56508        2.71124        1.75404
H          1.60795        2.23938        2.72205
H          1.51319        1.89284       -1.50193
C          3.21736       -0.46421        0.30104
C          4.29042        0.38838        0.42925
C          5.56478       -0.05752        0.12766
C          5.75462       -1.35648       -0.30046
C          4.67537       -2.20851       -0.42736
C          3.40252       -1.75991       -0.12402
H          2.55185       -2.41275       -0.23402
H          4.12524        1.40123        0.76049
C          1.12760       -0.50286        2.36598
C          0.49000       -1.88190        2.26000
C         -1.01749       -1.85968        2.05146
P         -1.64231       -0.90191        0.59821
C         -1.75514        0.86796        0.91342
C         -1.72928        1.39027        2.18592
C         -1.81100        2.75833        2.36872
C         -1.92766        3.59520        1.27686
C         -1.97133        3.06697        0.00254
C         -1.88931        1.69818       -0.17626
H         -1.92369        1.26733       -1.16493
H         -1.66473        0.73310        3.03672
C         -3.33119       -1.47215        0.32921
C         -4.23765       -1.26609        1.34556
C         -5.54370       -1.70255        1.20627
C         -5.93451       -2.34425        0.04792
C         -5.02503       -2.54531       -0.97098
C         -3.72317       -2.10532       -0.82719
H         -3.01277       -2.23273       -1.62464
H         -3.92027       -0.76062        2.24427
Pd         0.13618       -0.68143       -0.92353
Cl         1.75140       -0.24836       -2.42955
Cl        -1.29709       -1.34563       -2.50924
H         -1.40196       -2.87486        1.92351
H         -1.51968       -1.45483        2.93140
H          0.96724       -2.43290        1.43838
H          0.71749       -2.46795        3.16434
H          2.05872       -0.52573        2.93822
H          0.46496        0.20148        2.86786
H          1.44743        4.36048       -1.71513
H          1.55337        4.70088        2.53161
H          6.40608        0.60893        0.22421
H          4.82265       -3.22053       -0.76709
H         -1.78345        3.17093        3.36389
H         -2.06350        3.71789       -0.85122
H         -6.25329       -1.54150        2.00115
H         -5.32998       -3.03894       -1.87914
H          1.46806        5.75614        0.31210
H          6.74627       -1.70500       -0.53900
H         -1.98502        4.66197        1.41954
H         -6.95111       -2.68502       -0.06243
