75
-122.81802132
P          1.81340       -0.56656       -0.01668
C          1.67412       -1.57514       -1.49514
C          1.55192       -2.93817       -1.35223
C          1.52583       -3.74624       -2.47485
C          1.62765       -3.18198       -3.73112
C          1.75024       -1.81343       -3.86864
C          1.77430       -1.00835       -2.74487
H          1.86554        0.06156       -2.83542
H          1.82330       -1.37223       -4.84901
H          1.60465       -3.81046       -4.60635
H          1.42664       -4.81386       -2.36777
H          1.48974       -3.36384       -0.36289
C          3.12472       -1.29953        0.97386
C          4.39353       -1.34926        0.44260
C          5.42111       -1.92642        1.16687
C          5.16737       -2.45838        2.41537
C          3.88983       -2.41990        2.93757
C          2.86481       -1.84269        2.21097
H          1.86341       -1.80985        2.60834
H          3.69066       -2.83750        3.91083
H          5.96693       -2.90731        2.98179
H          6.41636       -1.96268        0.75525
H          4.57209       -0.94526       -0.54177
C          2.21392        1.13705       -0.44209
C          3.36788        1.78270       -0.06371
C          3.54352        3.13231       -0.33731
C          2.51210        3.82892       -0.96655
C          1.34271        3.19926       -1.33086
C          1.19479        1.82534       -1.08231
O          0.01268        1.14831       -1.42287
C         -1.17931        1.81291       -1.09144
C         -1.33797        3.18598       -1.33783
C         -2.51512        3.80422       -0.97919
C         -3.54488        3.09602       -0.36040
C         -3.36050        1.74638       -0.09318
C         -2.19837        1.11175       -0.46508
P         -1.78785       -0.59364       -0.05135
C         -3.07948       -1.32965        0.96454
C         -2.79047       -1.88598        2.18937
C         -3.79923       -2.46486        2.93707
C         -5.09003       -2.49232        2.44801
C         -5.37312       -1.94827        1.21114
C         -4.36177       -1.36947        0.46575
H         -4.56371       -0.95814       -0.51100
H         -6.37880       -1.97619        0.82504
H         -5.87701       -2.94210        3.03114
H         -3.57701       -2.89241        3.90098
H         -1.77888       -1.86369        2.56072
C         -1.69270       -1.58492       -1.54959
C         -1.86414       -2.94703       -1.45157
C         -1.87593       -3.72352       -2.59645
C         -1.72048       -3.12860       -3.83277
C         -1.54572       -1.76225       -3.92650
C         -1.53013       -0.99046       -2.77976
H         -1.37705        0.07417       -2.83629
H         -1.41387       -1.29801       -4.88997
H         -1.72818       -3.73245       -4.72545
H         -2.00943       -4.79022       -2.52251
H         -2.00203       -3.39512       -0.48020
Pd        -0.00132       -0.00668        1.39547
Cl        -1.59371        0.95156        2.67706
Cl         1.54632        0.90850        2.75765
H         -4.11909        1.19983        0.43809
C         -4.78873        3.78723        0.07107
H         -5.00571        4.64396       -0.56816
H         -4.69420        4.14653        1.09655
H         -5.64664        3.11497        0.02752
H         -2.63050        4.85719       -1.16620
S          0.00008        4.07867       -2.08870
H          2.61954        4.88221       -1.15659
C          4.77860        3.83629        0.09868
H          4.12676        1.24393        0.47533
H          4.99544        4.68823       -0.54699
H          4.67228        4.20501        1.11964
H          5.64152        3.16970        0.06947
