111
-148.55962429
P         -2.54065       -2.16831       -0.61864
P          0.03601       -0.34939       -0.48371
C         -1.56965       -1.88130       -2.12170
C         -0.43123       -1.10868       -2.05073
C         -3.23883       -3.88097       -0.56757
C         -2.49004       -4.74971        0.41950
C         -1.96348       -2.41829       -3.33077
H         -2.86704       -3.00286       -3.38606
C         -1.20412       -2.18992       -4.46536
H         -1.50979       -2.60976       -5.40979
C         -0.05701       -1.42342       -4.38938
H          0.53431       -1.24593       -5.27257
C          0.32840       -0.87704       -3.17838
H          1.21771       -0.27120       -3.10395
Pd        -1.20781       -1.46279        1.12320
Cl        -2.75690       -2.20167        2.56552
Cl         0.21457       -0.72667        2.69386
C         -4.71730       -3.63285       -0.21359
C         -4.09716       -1.17109       -0.56138
H         -2.90513       -5.75957        0.45798
H         -1.43201       -4.82668        0.15758
H         -2.54817       -4.33155        1.42555
H         -4.83236       -3.69234        0.87756
H         -5.35000       -4.43569       -0.62183
H         -4.13214       -0.71990        0.43905
C         -5.19850       -2.23822       -0.70767
C         -4.10419       -0.10570       -1.63719
H         -3.15216       -4.28805       -1.58277
H         -5.48783       -2.30504       -1.76545
H         -6.10797       -1.92483       -0.17284
H         -4.02252       -0.55692       -2.62778
H         -5.02645        0.47950       -1.61473
H         -3.26252        0.58151       -1.52277
C         -1.19108        4.04015       -0.38394
C         -0.23591        3.59097       -1.33113
C          0.12144        2.25244       -1.31864
C         -0.48437        1.36594       -0.46681
C         -1.48879        1.77622        0.37087
C         -1.89223        3.09954        0.41222
O         -1.41653        5.43097       -0.20474
C          0.43108        4.53414       -2.34479
H          0.89485        1.88421       -1.97029
H         -1.94887        1.05088        1.01694
C         -3.04503        3.49880        1.34680
C          4.45419       -0.78362        0.52327
C          3.76717        0.41337        0.84949
C          2.42231        0.50305        0.53227
C          1.78529       -0.50303       -0.14491
C          2.46841       -1.61901       -0.55181
C          3.81660       -1.77123       -0.27110
O          5.76241       -1.01267        1.02634
C          4.43832        1.58975        1.57494
H          1.84272        1.35928        0.83157
H          1.92658       -2.37960       -1.08710
C          4.55551       -3.01049       -0.80004
C         -0.51838        5.67663       -2.74934
C          1.71984        5.10713       -1.73636
C          0.79347        3.77201       -3.63988
C         -4.04783        2.33352        1.50963
C         -2.47611        3.85032        2.72971
C         -3.83443        4.69114        0.77683
C         -0.56274        6.03529        0.75887
H         -0.06993        6.30536       -3.51815
H         -1.45381        5.27771       -3.14022
H         -0.75639        6.31418       -1.90163
H          1.51411        5.65786       -0.82161
H          2.41765        4.30716       -1.49188
H          2.21378        5.78358       -2.43340
H          1.58761        3.04600       -3.47236
H         -0.07490        3.24585       -4.03561
H          1.14667        4.46008       -4.40762
H         -4.92437        2.65386        2.07222
H         -4.38772        1.97686        0.53813
H         -3.61114        1.49586        2.05126
H         -3.27195        4.12655        3.42084
H         -1.94120        3.00024        3.15269
H         -1.77914        4.68273        2.66933
H         -4.68979        4.93230        1.40744
H         -3.21475        5.58176        0.70921
H         -4.20321        4.46405       -0.22290
H          0.11364        5.29399        1.18645
H          0.01783        6.82817        0.28761
H         -1.16367        6.47932        1.55231
C          5.78701       -1.65652        2.29418
C          5.93420        1.68336        1.22372
C          3.79390        2.92896        1.14904
C          4.25804        1.41637        3.09060
C          6.03605       -2.69607       -1.08209
C          4.44235       -4.14701        0.22714
C          3.93525       -3.48609       -2.13373
H          6.47847        0.80664        1.56518
H          6.07080        1.76190        0.14568
H          6.39188        2.55641        1.68828
H          4.34412        3.77292        1.56442
H          3.79693        3.02902        0.06426
H          2.76629        3.01478        1.49898
H          3.20028        1.37813        3.35007
H          4.71612        0.49350        3.43854
H          4.71063        2.24429        3.63562
H          6.54307       -3.55605       -1.51897
H          6.12552       -1.86085       -1.77591
H          6.56598       -2.43060       -0.17072
H          4.88935       -3.86519        1.17744
H          3.39775       -4.39544        0.41330
H          4.94549       -5.04600       -0.12799
H          2.93069       -3.88227       -1.99342
H          4.53351       -4.28217       -2.57642
H          3.88423       -2.66740       -2.85114
H          6.28024       -1.01351        3.02287
H          4.77192       -1.87344        2.62943
H          6.35264       -2.58530        2.22134
