45
-71.81665563
C          0.49610        1.86780        2.97645
P         -0.16698        0.89164        1.58414
P         -0.07382        0.78028       -1.54827
C          0.69444        1.75644       -2.88478
Cl         2.82201       -0.34021        1.78624
H          0.90219        2.80493        2.60646
H          1.06228        2.69894       -2.48939
Cl         3.04057       -0.16376       -1.47833
C         -1.40248        1.79845        0.63908
C         -1.36772        1.73985       -0.73610
C         -2.32430        2.39709       -1.48293
C         -3.32147        3.11290       -0.84398
C         -3.35975        3.16521        0.53610
C         -2.39948        2.50351        1.28120
H         -2.28811        2.34358       -2.55904
H         -4.07023        3.62680       -1.42405
H         -4.13942        3.71830        1.03349
H         -2.42538        2.52518        2.35868
Pd         1.49575        0.27662        0.08790
H         -0.03310        1.95789       -3.66569
H          1.28793        1.31311        3.47190
H          1.52634        1.20400       -3.31230
C         -1.58003       -3.24991       -3.01100
C         -2.48586       -2.24164       -2.74442
C         -2.03580       -1.00563       -2.31730
C         -0.68581       -0.78939       -2.16019
C          0.22000       -1.79050       -2.42441
C         -0.22622       -3.02684       -2.85284
H         -1.93063       -4.21365       -3.34251
H         -3.54207       -2.41776       -2.86557
H         -2.73095       -0.21301       -2.09347
H          1.27094       -1.59657       -2.27746
H          0.48082       -3.81384       -3.05749
C         -1.90568       -3.15638        2.70606
C         -1.40605       -2.34536        3.70676
C         -0.87370       -1.10750        3.39327
C         -0.84746       -0.69154        2.08186
C         -1.34322       -1.49611        1.08310
C         -1.87471       -2.73434        1.39177
H         -2.31794       -4.12153        2.95126
H         -1.42810       -2.67735        4.73177
H         -0.47618       -0.46859        4.16466
H         -1.29798       -1.15438        0.06360
H         -2.25785       -3.36632        0.60758
H         -0.29033        2.08211        3.69437
