72
-108.40241913
Cl         1.74076       -0.88393        2.62699
Cl        -0.92923        0.77925        2.82167
P         -1.12700        1.15293       -0.28242
P          2.26069       -0.13525       -0.36304
C          3.25064        1.46386       -0.10320
C          3.59996        1.59922        1.38016
C          4.52069        1.43425       -0.94592
C          3.34205       -1.68720       -0.14025
C          4.16128       -1.95183       -1.41028
C          1.44985       -0.40483       -2.04765
C          1.52801        0.77079       -2.99923
C         -1.13276       -0.17318       -1.52503
C          0.02728       -0.93524       -1.98657
C         -0.47490       -2.01003       -2.84534
C         -1.91968       -1.90883       -2.90855
C         -2.32200       -0.77777       -2.09466
C          2.39257        2.66052       -0.49317
H          2.70561        1.57495        2.00280
H          4.26574        0.81116        1.72142
H          5.04924        2.38634       -0.87575
H          4.29970        1.25686       -1.99740
C          4.29531       -1.57130        1.04544
H          4.65830       -1.05179       -1.76730
H          3.54864       -2.34518       -2.22056
H          2.05107       -1.21173       -2.47674
H          1.17739        0.49136       -3.99490
H          2.54238        1.15344       -3.10582
H          0.88101        1.57710       -2.66165
H          0.14362       -2.70365       -3.41811
H         -2.58558       -2.55309       -3.48687
Pd         0.49417        0.26355        1.15582
H         -3.34343       -0.44040       -1.90650
C          2.37442       -2.83908        0.09026
H          4.93243       -2.69942       -1.21700
H          3.76972       -1.29460        1.95691
H          4.78600       -2.52729        1.23385
H          5.08284       -0.84387        0.85760
H          1.86820       -2.72893        1.04801
H          1.62142       -2.88214       -0.69799
H          2.90158       -3.79508        0.10532
H          4.10489        2.54790        1.56958
H          5.20760        0.66032       -0.60778
H          2.17209        2.67972       -1.55726
H          1.45402        2.65381        0.05816
H          2.90352        3.59562       -0.25760
C         -2.79574        1.22971        0.41708
C         -3.22438        2.16489        1.32598
C         -4.55610        1.87171        1.61948
C         -4.88812        0.76837        0.87302
O         -3.81690        0.36419        0.12998
H         -2.63180        2.95837        1.75046
H         -5.19720        2.40458        2.30259
H         -5.85298        0.27656        0.86499
C         -0.74159        2.76812       -0.98030
C         -0.68216        3.91854       -0.23295
C         -0.35937        4.95741       -1.10711
C         -0.23566        4.39596       -2.35430
O         -0.46404        3.05091       -2.28991
H         -0.83651        3.99385        0.83132
H         -0.23184        5.99691       -0.85272
H          0.00921        4.92741       -3.26555
Fe        -1.29662       -2.11661       -0.96031
C         -2.98289       -2.76330        0.00684
C         -2.17242       -1.98914        0.92600
C         -0.87515       -2.62371        1.00322
C         -0.88910       -3.80282        0.15783
C         -2.20350       -3.90082       -0.44932
H         -4.02096       -2.54853       -0.25732
H         -2.47232       -1.07940        1.44868
H         -0.05922       -2.29197        1.64730
H         -0.07632       -4.52326        0.04292
H         -2.54461       -4.68661       -1.12692
