105
-153.06647744
Cl        -1.07913        2.40857       -2.71122
Pd         0.12282        1.43264       -1.07986
P          1.34982        0.75670        0.77691
N          0.48247       -0.39163        1.78118
C         -0.01989       -1.67242        1.59363
C         -0.12730       -2.31351        0.33387
C         -0.78060       -3.56047        0.24498
C         -0.90394       -4.21994       -1.10785
C         -1.94723       -5.34637       -1.16351
C         -1.80260       -6.28353        0.03896
C         -1.98318       -5.51437        1.35681
C         -1.27506       -4.18265        1.39333
C         -1.12047       -3.55548        2.62200
C         -0.51209       -2.33161        2.72022
H         -0.43224       -1.84755        3.67812
H         -1.50803       -4.03539        3.50476
H         -3.05058       -5.34478        1.54162
H         -2.51603       -7.11706       -0.02898
H         -2.95374       -4.90944       -1.16333
H         -1.14653       -3.45336       -1.85380
C          0.58288       -1.81557       -0.86961
C         -0.14043       -1.20791       -1.93663
C          0.52418       -0.98592       -3.14840
C          1.84647       -1.31621       -3.29825
C          2.56198       -1.91576       -2.26858
C          3.99483       -2.30846       -2.51189
C          4.42498       -3.51243       -1.66212
C          4.10696       -3.26196       -0.18490
C          2.61084       -2.97705        0.03817
C          1.92807       -2.18350       -1.05416
H          2.07589       -3.92743        0.15165
H          4.69622       -2.40761        0.16462
H          5.49282       -3.73243       -1.80299
H          4.63776       -1.44837       -2.29229
H          2.34536       -1.11546       -4.23110
H         -0.01026       -0.51290       -3.95341
N         -1.46663       -0.77438       -1.79402
P         -1.83152        0.21124       -0.37030
C         -2.81032       -0.75760        0.78004
C         -3.47052       -1.85888        0.29205
C         -4.27144       -2.60962        1.13314
C         -4.42285       -2.24924        2.46517
C         -3.75851       -1.12317        2.93438
C         -2.96172       -0.37148        2.09009
H         -2.45443        0.50924        2.44764
H         -3.86543       -0.84126        3.96790
C         -5.24247       -3.08443        3.38563
H         -4.77695       -3.48408        0.76072
H         -3.34256       -2.13096       -0.74348
C         -2.90909        1.59476       -0.75207
C         -2.73376        2.77826       -0.07434
C         -3.56622        3.84948       -0.34210
C         -4.57800        3.73843       -1.28661
C         -4.75159        2.52611       -1.94154
C         -3.91750        1.45549       -1.67427
H         -4.05125        0.51165       -2.17795
H         -5.54384        2.42608       -2.66362
C         -5.48627        4.88581       -1.56193
H         -3.43199        4.78104        0.18064
H         -1.94261        2.86272        0.65407
H         -1.84968       -0.27253       -2.58562
H          0.64127       -0.10375        2.73876
C          1.24004        2.33621        1.62225
C          2.21371        3.29063        1.44919
C          2.07985        4.52466        2.05901
C          0.96307        4.81438        2.83227
C         -0.00880        3.83633        2.99540
C          0.12932        2.60196        2.38733
H         -0.62720        1.84331        2.50149
H         -0.87453        4.04800        3.59951
C          0.82566        6.13638        3.50387
H          2.84154        5.27469        1.93120
H          3.06662        3.07121        0.82740
C          3.08814        0.29798        0.81446
C          3.93626        0.57093       -0.23177
C          5.27986        0.26523       -0.13495
C          5.78935       -0.31755        1.01686
C          4.92470       -0.57047        2.07318
C          3.57927       -0.26319        1.97010
H          2.90826       -0.45632        2.79145
H          5.31085       -1.00946        2.97716
C          7.24000       -0.63385        1.12785
H          5.94474        0.48547       -0.95264
H          3.54715        1.04768       -1.11414
Cl         2.02986        2.31044       -1.87670
H         -1.63425       -6.12265        2.20114
H         -1.86922       -5.90621       -2.10622
H         -0.80748       -6.74566        0.02008
H          0.07874       -4.61011       -1.39771
H          4.43591       -4.11086        0.43077
H          2.46569       -2.45265        0.99020
H          4.13903       -2.52035       -3.57897
H          3.88962       -4.40769       -2.00268
H         -6.06034       -3.57127        2.85261
H         -4.63245       -3.86165        3.84820
H         -5.67938       -2.48047        4.18210
H         -4.97226        5.83727       -1.41867
H         -5.85247        4.86000       -2.58918
H         -6.34967        4.86536       -0.89556
H          1.22329        6.09844        4.51899
H          1.36492        6.91314        2.95987
H         -0.22052        6.44009        3.56281
H          7.41087       -1.46563        1.81276
H          7.65628       -0.91310        0.15884
H          7.79710        0.22767        1.49839
