87
-129.18746304
P         -1.69560       -0.37797       -0.15747
P          1.60539        0.35142       -0.15454
C         -1.42858        0.95423       -1.34812
C          1.35975       -0.65973       -1.61977
C         -0.45352        0.89719       -2.34159
C         -0.23873        2.03183       -3.14782
C         -1.01581        3.16062       -2.95360
C         -1.98421        3.19554       -1.97451
C         -2.18114        2.09072       -1.17002
C          2.14970       -1.76858       -1.80068
C          1.97183       -2.57402       -2.90803
C          0.99641       -2.26062       -3.83067
C          0.18701       -1.14885       -3.66626
C          0.37360       -0.32336       -2.53970
Cl         1.26881        1.04476        2.95478
Cl        -1.36359       -0.81882        3.06202
H         -2.57690        4.08380       -1.82902
H         -2.92634        2.11768       -0.39238
H          2.91072       -2.00480       -1.07566
H          2.58957       -3.44605       -3.04713
H         -0.84826        4.02331       -3.57594
H          0.85027       -2.88886       -4.69293
C         -1.09775       -4.57368       -1.79447
C         -0.45828       -4.19982       -0.62040
C         -0.67323       -2.91808       -0.13000
C         -1.49252       -2.03988       -0.80128
C         -2.13929       -2.42465       -1.95189
C         -1.94124       -3.69871       -2.45110
H         -0.92817       -5.55971       -2.19220
C          0.47866       -5.12369        0.07443
H         -0.20394       -2.61174        0.78881
H         -2.77776       -1.72149       -2.46293
H         -2.43488       -4.00349       -3.35927
C         -5.72485        0.11651        1.90599
C         -5.54955       -0.87952        0.96581
C         -4.32421       -1.03404        0.34514
C         -3.28561       -0.19104        0.66536
C         -3.45876        0.80208        1.60188
C         -4.68005        0.96529        2.24418
H         -6.67888        0.24006        2.38956
H         -6.36626       -1.53704        0.71654
H         -4.17214       -1.81101       -0.38593
H         -2.63388        1.44833        1.85347
C         -4.86236        2.04740        3.24946
C          5.03134       -1.31300        2.34527
C          5.13909       -0.05356        1.78898
C          4.10616        0.45303        1.02307
C          2.97541       -0.30203        0.81899
C          2.86424       -1.55510        1.37642
C          3.89539       -2.08436        2.14206
H          5.83105       -1.70583        2.94975
H          6.02473        0.53715        1.95668
H          4.17190        1.43890        0.59303
H          1.96786       -2.13104        1.22030
C          3.75459       -3.42889        2.76416
C          2.23542        4.70496       -1.27809
C          3.01684        3.72467       -1.85798
C          2.83339        2.39959       -1.50826
C          1.87861        2.07133       -0.57484
C          1.10605        3.04546        0.01322
C          1.26366        4.37950       -0.34170
H          2.37474        5.73710       -1.55104
H          3.76437        3.99040       -2.58734
H          3.42077        1.61823       -1.96468
H          0.36916        2.77052        0.74892
C          0.42643        5.43227        0.29445
Pd        -0.06284        0.04128        1.44864
C          0.80913        2.04734       -4.20639
C         -0.86031       -0.85246       -4.68273
H          1.36032        2.98865       -4.19323
H          1.53213        1.24323       -4.06564
H          0.36450        1.93298       -5.19568
H         -1.57992       -0.12070       -4.31399
H         -0.41446       -0.45658       -5.59599
H         -1.41447       -1.75496       -4.94447
H          0.44730       -4.97410        1.15470
H          0.22578       -6.16612       -0.12385
H          1.50397       -4.95551       -0.25849
H         -5.08852        2.99630        2.76109
H         -5.67934        1.81718        3.93467
H         -3.95861        2.18178        3.84574
H          3.23811       -4.11784        2.09408
H          4.72836       -3.86121        2.99841
H          3.18122       -3.36718        3.69016
H         -0.56721        5.05028        0.53384
H          0.88399        5.78401        1.22010
H          0.30031        6.28987       -0.36792
