58
-89.86541857
P          1.58543        0.15925        0.79352
C          1.56895        1.93133        0.49458
C          1.63587        2.35907       -0.81183
C          1.60720        3.71129       -1.09799
C          1.51780        4.62713       -0.06849
C          1.46348        4.19443        1.24206
C          1.49139        2.84076        1.52479
H          1.45170        2.49357        2.54411
H          1.70987        1.62470       -1.59884
C          3.21840       -0.52210        0.49380
C          4.30945        0.31652        0.52620
C          5.57596       -0.19253        0.30085
C          5.73947       -1.53963        0.04506
C          4.64188       -2.37709        0.01388
C          3.37683       -1.86526        0.24052
H          2.51093       -2.50632        0.20190
H          4.16448        1.36674        0.72357
C          1.06846       -0.28526        2.50479
C          0.39081       -1.65097        2.54656
C         -1.11405       -1.60865        2.32343
P         -1.64490       -0.76799        0.76896
C         -1.85092        1.01497        0.95114
C         -1.84613        1.63941        2.17752
C         -1.95935        3.01572        2.24843
C         -2.08049        3.75991        1.09176
C         -2.09641        3.13066       -0.13640
C         -1.98413        1.75453       -0.20244
H         -1.98942        1.24450       -1.15323
H         -1.76397        1.05610        3.07892
C         -3.15691       -1.52910        0.17623
C         -4.32450       -0.80227        0.12851
C         -5.48417       -1.39473       -0.33787
C         -5.46400       -2.71136       -0.75423
C         -4.28929       -3.43597       -0.70561
C         -3.13099       -2.84093       -0.23766
H         -2.20270       -3.38960       -0.20463
H         -4.32284        0.22614        0.45178
Pd         0.07338       -0.59272       -0.78876
Cl         1.76290       -0.78667       -2.25383
Cl        -1.51542       -1.02547       -2.31925
H         -1.52932       -2.61892        2.28748
H         -1.61687       -1.10286        3.14897
H          0.85543       -2.30016        1.79195
H          0.59688       -2.14204        3.51058
H          1.98090       -0.26324        3.10634
H          0.41096        0.48960        2.89821
H          1.65320        4.04716       -2.12080
H          1.39525        4.91034        2.04462
H          6.43174        0.46200        0.32257
H          4.76873       -3.42726       -0.19185
H         -1.94997        3.50759        3.20726
H         -2.18881        3.70860       -1.04112
H         -6.39993       -0.82819       -0.37903
H         -4.27221       -4.46152       -1.03603
H          1.49233        5.68203       -0.28803
H          6.72506       -1.93762       -0.13367
H         -2.16180        4.83319        1.14771
H         -6.36607       -3.17338       -1.12102
