105
-153.07169826
Cl        -0.90895        2.13147       -2.88824
Pd         0.10739        1.48929       -0.98809
P          1.32797        0.73872        0.84228
N          0.57688       -0.47263        1.86638
C          0.01394       -1.72238        1.65306
C         -0.09918       -2.33667        0.38188
C         -0.80059       -3.55359        0.25875
C         -0.91855       -4.18312       -1.10998
C         -1.42027       -5.63578       -1.10512
C         -2.58041       -5.81494       -0.12158
C         -2.14342       -5.44698        1.30432
C         -1.36356       -4.15913        1.38389
C         -1.19660       -3.56505        2.62757
C         -0.52382       -2.37839        2.76022
H         -0.43343       -1.91731        3.72843
H         -1.62278       -4.04135        3.49435
H         -3.01862       -5.37214        1.96252
H         -3.41513       -5.17087       -0.42522
H         -1.71591       -5.95009       -2.11604
H         -1.58952       -3.56336       -1.71631
C          0.64740       -1.84528       -0.80164
C         -0.04845       -1.23528       -1.88178
C          0.64053       -1.01691       -3.07876
C          1.95519       -1.38158       -3.21338
C          2.63956       -2.00655       -2.17791
C          4.05426       -2.46464       -2.41537
C          4.43377       -3.67309       -1.54820
C          4.12149       -3.39023       -0.07573
C          2.63574       -3.04875        0.13788
C          1.98597       -2.24669       -0.96801
H          2.06629       -3.97762        0.26219
H          4.74085       -2.55283        0.26333
H          5.49247       -3.93714       -1.68234
H          4.73537       -1.63122       -2.21084
H          2.46957       -1.19662       -4.14111
H          0.12763       -0.53144       -3.89030
N         -1.38037       -0.81526       -1.77265
P         -1.81546        0.19410       -0.38710
C         -2.80045       -0.74643        0.77990
C         -3.51470       -1.81641        0.29774
C         -4.32930       -2.54016        1.14973
C         -4.43003       -2.19234        2.48978
C         -3.72464       -1.08790        2.94944
C         -2.91468       -0.36274        2.09463
H         -2.37072        0.49639        2.44912
H         -3.81242       -0.80038        3.98323
C         -5.30647       -2.96739        3.41047
H         -4.88864       -3.38176        0.77883
H         -3.42463       -2.08212       -0.74350
C         -2.90791        1.53410       -0.87988
C         -2.80308        2.75786       -0.26148
C         -3.64818        3.78753       -0.63209
C         -4.60323        3.59613       -1.62148
C         -4.70732        2.34588       -2.21649
C         -3.86026        1.31702       -1.84589
H         -3.94177        0.34437       -2.30389
H         -5.45547        2.18323       -2.97338
C         -5.52679        4.69865       -2.00723
H         -3.56858        4.74927       -0.15475
H         -2.05763        2.90660        0.50340
H         -1.74810       -0.33335       -2.58320
H          0.75108       -0.19900        2.82586
C          1.25727        2.26719        1.78307
C          2.34327        3.10427        1.87633
C          2.23473        4.29322        2.57379
C          1.03881        4.64962        3.18312
C         -0.05027        3.79613        3.06701
C          0.06201        2.60670        2.37024
H         -0.77822        1.93888        2.27601
H         -0.98706        4.06989        3.52157
C          0.91457        5.94504        3.90692
H          3.07918        4.95751        2.64247
H          3.26645        2.83223        1.39118
C          3.06735        0.34826        0.64643
C          3.75288        0.67367       -0.49936
C          5.10792        0.41707       -0.58892
C          5.79121       -0.15173        0.47687
C          5.08546       -0.46390        1.63121
C          3.72759       -0.21067        1.71513
H          3.17771       -0.44376        2.61310
H          5.60375       -0.91128        2.46203
C          7.24337       -0.46078        0.36498
H          5.64648        0.66684       -1.48714
H          3.23155        1.15419       -1.30962
Cl         1.79609        2.92879       -1.34523
H         -1.52939       -6.25329        1.72288
H         -0.59767       -6.30333       -0.81920
H         -2.97072       -6.84185       -0.16007
H          0.05664       -4.12825       -1.60982
H          4.41774       -4.24179        0.55274
H          2.50633       -2.50546        1.08168
H          4.18692       -2.69935       -3.47920
H          3.86436       -4.55098       -1.87863
H         -4.89315       -2.98957        4.41985
H         -6.30177       -2.52411        3.46302
H         -5.41469       -3.99995        3.07537
H         -5.82591        4.61340       -3.05282
H         -6.42982        4.67971       -1.39557
H         -5.05248        5.67247       -1.87796
H          0.63808        6.74650        3.22053
H          0.15220        5.89048        4.68532
H          1.85587        6.22045        4.38463
H          7.75882        0.28815       -0.23789
H          7.71966       -0.48072        1.34617
H          7.39689       -1.43396       -0.10358
