111
-148.55486496
P         -1.62882       -2.73439        0.11466
P         -0.46825        0.13696       -0.48762
C         -1.65087       -2.09011       -1.58367
C         -1.20738       -0.80852       -1.83288
C         -0.42260       -4.13122        0.24567
C          0.70988       -3.77363        1.18461
C         -2.07412       -2.88438       -2.63034
H         -2.37872       -3.89994       -2.43816
C         -2.07893       -2.38145       -3.91996
H         -2.41355       -3.00050       -4.73634
C         -1.64833       -1.09128       -4.16342
H         -1.64624       -0.70229       -5.16834
C         -1.19998       -0.30553       -3.11705
H         -0.82575        0.69063       -3.29371
Pd        -1.29416       -0.85817        1.42337
Cl        -2.45332       -1.78599        3.10189
Cl        -0.74610        0.98283        2.59482
C         -1.28976       -5.31355        0.72444
C         -3.19020       -3.61422        0.58081
H          1.40994       -4.60429        1.30068
H          1.27020       -2.90932        0.82301
H          0.32494       -3.52154        2.17488
H         -1.15251       -5.43272        1.80789
H         -0.93339       -6.25460        0.27914
H         -3.35306       -3.38930        1.64277
C         -2.79954       -5.09422        0.42073
C         -4.38440       -3.16803       -0.23544
H         -0.05056       -4.30879       -0.77198
H         -3.02140       -5.41287       -0.60690
H         -3.42699       -5.72726        1.06682
H         -4.54888       -2.09246       -0.13859
H         -4.24191       -3.38253       -1.29472
H         -5.29603       -3.67972        0.08128
C         -0.85272        4.66268       -0.84496
C          0.40384        4.08284       -0.52752
C          0.47801        2.70477       -0.41724
C         -0.60786        1.91031       -0.67730
C         -1.79236        2.45845       -1.09528
C         -1.93488        3.82981       -1.23678
O         -1.04661        6.06025       -0.69819
C          1.69111        4.89288       -0.29741
H          1.39564        2.23402       -0.11050
H         -2.61598        1.79754       -1.30783
C         -3.25219        4.35960       -1.82914
C          3.73914       -1.48341        0.16008
C          3.17167       -0.59669        1.11333
C          1.89490       -0.11722        0.88010
C          1.22543       -0.41200       -0.27769
C          1.81498       -1.17149       -1.25333
C          3.08807       -1.68967       -1.08530
O          4.90280       -2.22606        0.48711
C          3.87819       -0.14554        2.40184
H          1.38090        0.45807        1.63111
H          1.25545       -1.38235       -2.14839
C          3.70335       -2.46680       -2.26052
C          2.00742        4.93199        1.20674
C          2.86650        4.21861       -1.04043
C          1.58159        6.32840       -0.83994
C         -3.14129        5.82430       -2.28760
C         -3.62603        3.52613       -3.07529
C         -4.37228        4.23120       -0.78373
C         -1.49502        6.42024        0.59785
H          2.93803        5.46645        1.39573
H          1.21627        5.42964        1.76365
H          2.11070        3.92456        1.60784
H          2.63335        4.09593       -2.09771
H          3.77101        4.82150       -0.96366
H          3.09775        3.23728       -0.62959
H          1.29143        6.32119       -1.88999
H          0.83705        6.90118       -0.29216
H          2.53169        6.85496       -0.75276
H         -2.30692        5.94903       -2.97691
H         -4.05120        6.14806       -2.79238
H         -2.97903        6.49084       -1.44395
H         -4.51461        3.92971       -3.56010
H         -2.81366        3.53514       -3.80147
H         -3.83903        2.48924       -2.82101
H         -5.32337        4.57726       -1.18756
H         -4.49705        3.19469       -0.47211
H         -4.15153        4.81974        0.10454
H         -1.61883        7.50222        0.64795
H         -2.44744        5.93834        0.81150
H         -0.76895        6.10578        1.34535
C          4.60933       -3.46200        1.11837
C          5.38938       -0.43067        2.37115
C          3.70893        1.38090        2.57044
C          3.24148       -0.85612        3.60820
C          3.00598       -3.83177       -2.38766
C          3.49472       -1.67039       -3.56784
C          5.21938       -2.67274       -2.09848
H          5.88508       -0.01691        3.24900
H          5.58877       -1.49944        2.35438
H          5.84509        0.00816        1.48423
H          4.26573        1.74058        3.43526
H          4.07671        1.90819        1.69067
H          2.66656        1.65726        2.71935
H          2.17577       -0.63785        3.67087
H          3.35452       -1.93590        3.53525
H          3.70512       -0.53255        4.53962
H          1.93643       -3.70818       -2.55539
H          3.41275       -4.40061       -3.22330
H          3.13268       -4.42508       -1.48422
H          2.44030       -1.57800       -3.82273
H          3.90887       -0.66667       -3.47638
H          3.98828       -2.16272       -4.40539
H          5.72104       -1.71952       -1.93545
H          5.64983       -3.13658       -2.98570
H          5.44283       -3.31587       -1.25085
H          4.00770       -3.29428        2.00993
H          4.05571       -4.10804        0.43939
H          5.54165       -3.95202        1.39961
