64
-97.21985595
Cl        -1.37485       -0.50460       -2.81842
Cl         1.86930       -0.88513       -2.90325
P          1.97238       -0.58864        0.28757
C          2.21800       -2.33009        0.86586
C          3.74853       -0.05551        0.15575
P         -1.30220       -0.29335        0.34490
C          1.15589        0.45560        1.55154
C         -0.28566        0.61295        1.56945
C         -0.62076        1.59184        2.59182
C          0.62631        2.06761        3.16532
C          1.72511        1.33622        2.55880
H         -1.62610        1.90311        2.88184
H          0.71789        2.80306        3.96796
Pd         0.28726       -0.72179       -1.33141
H          2.78686        1.45497        2.78216
C         -5.17751        1.79009       -0.86130
C         -4.93023        0.48588       -1.24044
C         -3.74995       -0.12925       -0.86268
C         -2.82197        0.55870       -0.11439
C         -3.07206        1.85639        0.27023
C         -4.24924        2.47670       -0.10452
H         -6.09531        2.27222       -1.15621
H         -5.65251       -0.05212       -1.83218
H         -3.54279       -1.14606       -1.15635
H         -2.34407        2.38463        0.85977
H         -4.44043        3.49467        0.19326
C         -2.39607       -4.42245        1.88666
C         -2.11316       -4.24143        0.54670
C         -1.78740       -2.98247        0.07627
C         -1.74417       -1.91944        0.94849
C         -2.03207       -2.09076        2.28269
C         -2.35841       -3.34931        2.75585
H         -2.64974       -5.40329        2.25453
H         -2.14725       -5.07791       -0.13186
H         -1.57556       -2.81952       -0.96847
H         -1.99253       -1.24150        2.94652
H         -2.58135       -3.49098        3.80061
C          4.21982        0.06921       -1.27667
H          3.82915        0.91080        0.67061
C          4.49021       -1.16232        0.93095
H          4.58223       -0.88114        1.99033
C          3.74641       -2.51999        0.82077
H          5.52010       -1.25176        0.55546
C          1.63053       -2.51175        2.24867
H          1.71287       -2.98307        0.14093
H          4.05746       -3.19973        1.62713
H          4.03527       -3.01907       -0.11562
H          1.76585       -3.53313        2.61224
H          2.11121       -1.83807        2.96086
H          0.56224       -2.28920        2.25928
H          5.27561        0.34391       -1.32782
H          4.10038       -0.88017       -1.80097
H          3.65332        0.82044       -1.82851
Fe         0.60833        2.36123        1.14139
C         -0.12548        2.76029       -0.72920
C          1.27626        2.40137       -0.80511
C          2.02982        3.33739        0.00647
C          1.09314        4.28516        0.58495
C         -0.24109        3.91747        0.14093
H         -0.93596        2.26242       -1.26566
H          1.68619        1.60346       -1.42611
H          3.11520        3.35231        0.12796
H          1.34729        5.12882        1.23055
H         -1.16275        4.45613        0.37362
