45
-71.81651686
C          0.45175        1.74588        2.93786
P         -0.20140        0.77883        1.53507
P         -0.00187        0.89186       -1.59549
C          0.80351        1.85635       -2.91916
Cl         2.86960       -0.17824        1.77484
H         -0.34411        1.96379        3.64414
H          0.09014        2.08563       -3.70550
Cl         2.97132       -0.38519       -1.52256
C         -1.39841        1.75839        0.60595
C         -1.30363        1.81889       -0.76636
C         -2.22470        2.54076       -1.49708
C         -3.23960        3.21736       -0.84339
C         -3.33145        3.16293        0.53405
C         -2.41003        2.43036        1.26161
H         -2.14945        2.56385       -2.57223
H         -3.96026        3.78364       -1.41011
H         -4.12282        3.68832        1.04287
H         -2.47558        2.37527        2.33626
Pd         1.50231        0.24397        0.04707
H          1.62697        1.28733       -3.34139
H          0.87379        2.67982        2.57793
H          1.19131        2.78556       -2.51150
C         -1.70383       -3.12372       -2.87832
C         -1.10403       -2.32010       -3.82871
C         -0.57992       -1.09228       -3.46581
C         -0.66194       -0.67893       -2.15589
C         -1.25770       -1.47608       -1.20702
C         -1.78139       -2.70429       -1.56510
H         -2.10975       -4.08103       -3.16183
H         -1.04170       -2.65002       -4.85273
H         -0.10531       -0.45908       -4.19732
H         -1.29710       -1.13645       -0.18652
H         -2.24330       -3.33051       -0.81969
C         -1.90095       -3.22246        2.85907
C         -2.76210       -2.20259        2.50339
C         -2.25500       -0.97537        2.11671
C         -0.89311       -0.77941        2.08871
C         -0.03168       -1.79206        2.44220
C         -0.53507       -3.01972        2.83036
H         -2.29591       -4.17927        3.15930
H         -3.82756       -2.36273        2.52401
H         -2.91377       -0.17377        1.82513
H          1.03116       -1.61338        2.39719
H          0.13741       -3.81568        3.10491
H          1.22777        1.17999        3.44533
