87
-129.18597550
P         -1.68032       -0.35687       -0.11573
P          1.54495        0.33093       -0.20249
C         -1.44021        0.97551       -1.31762
C          1.30312       -0.65168       -1.68681
C         -0.50154        0.93285       -2.34702
C         -0.30315        2.08417       -3.13391
C         -1.06722        3.21270       -2.89328
C         -2.00372        3.23269       -1.88367
C         -2.17843        2.11380       -1.09359
C          2.09757       -1.74973       -1.90832
C          1.92156       -2.51387       -3.04482
C          0.94414       -2.17009       -3.95486
C          0.13018       -1.06831       -3.74906
C          0.31714       -0.28361       -2.59325
Cl         1.34922        1.03648        2.98599
Cl        -1.39909       -0.67478        3.09606
H         -2.58674        4.12060       -1.70157
H         -2.89411        2.13178       -0.28833
H          2.86214       -2.00785       -1.19481
H          2.54274       -3.37754       -3.21686
H         -0.91306        4.08746       -3.50214
H          0.79918       -2.76713       -4.83920
C         -0.84986       -4.58821       -1.54970
C         -0.34341       -4.16539       -0.32838
C         -0.62978       -2.87327        0.09399
C         -1.38459       -2.03158       -0.69053
C         -1.90821       -2.46834       -1.88421
C         -1.63815       -3.75309       -2.31727
H         -0.62373       -5.58295       -1.89408
C          0.52286       -5.05509        0.49146
H         -0.28666       -2.53478        1.05663
H         -2.50658       -1.79656       -2.47877
H         -2.03138       -4.09690       -3.25987
C         -5.82381       -0.03814        1.74827
C         -5.57033       -0.99363        0.78420
C         -4.31065       -1.08979        0.22320
C         -3.31415       -0.23370        0.63097
C         -3.56608        0.72046        1.58977
C         -4.82768        0.83608        2.16049
H         -6.80139        0.03245        2.19399
H         -6.35191       -1.66667        0.47177
H         -4.09775       -1.83422       -0.52648
H         -2.77149        1.37037        1.91759
C         -5.08141        1.84336        3.22613
C          4.93464       -1.46337        2.26091
C          5.05906       -0.18451        1.75486
C          4.03623        0.36257        1.00354
C          2.90091       -0.37342        0.75901
C          2.77372       -1.64598        1.26604
C          3.78715       -2.20961        2.03051
H          5.73101       -1.89186        2.84522
H          5.95080        0.38884        1.94853
H          4.11528        1.36373        0.61294
H          1.88039       -2.21186        1.06549
C          3.64636       -3.59298        2.56083
C          2.39629        4.64398       -1.33935
C          3.12033        3.62158       -1.92086
C          2.87178        2.30981       -1.56150
C          1.90623        2.03585       -0.62162
C          1.18925        3.05156       -0.03352
C          1.42609        4.37525       -0.38357
H          2.57814        5.66522       -1.62792
H          3.87131        3.84399       -2.66108
H          3.41353        1.49658       -2.01876
H          0.43173        2.81793        0.69541
C          0.61709        5.47052        0.21622
Pd        -0.05658        0.13293        1.49068
C          0.72019        2.12267       -4.21587
C         -0.92559       -0.74469       -4.74824
H          0.25184        2.04515       -5.19775
H          1.28177        3.05744       -4.18516
H          1.43793        1.30764       -4.11774
H         -1.49229       -1.63721       -5.01747
H         -1.63310       -0.01131       -4.35977
H         -0.48623       -0.33939       -5.66054
H          0.43310       -4.82117        1.55326
H          0.24951       -6.10276        0.35867
H          1.57037       -4.94111        0.20867
H         -6.14159        2.09173        3.29236
H         -4.76191        1.46482        4.19805
H         -4.53561        2.76731        3.02935
H          3.85641       -4.32940        1.78386
H          4.33332       -3.77174        3.38911
H          2.63379       -3.76820        2.92732
H         -0.27914        5.65805       -0.37690
H          0.30267        5.21619        1.22948
H          1.18768        6.39876        0.26919
