105
-153.07205141
Cl        -0.82431        2.09492       -2.85317
Pd         0.08515        1.52792       -0.87265
P          1.35745        0.73458        0.89920
N          0.66105       -0.52132        1.90822
C          0.03551       -1.73739        1.67324
C         -0.12143       -2.31683        0.38935
C         -0.86443       -3.50907        0.25485
C         -1.02405       -4.11306       -1.12011
C         -2.12036       -5.18551       -1.21593
C         -2.03650       -6.16104       -0.03864
C         -2.19325       -5.41833        1.29693
C         -1.40030       -4.13786        1.38113
C         -1.19763       -3.57261        2.63275
C         -0.49893       -2.40262        2.77619
H         -0.37637       -1.96596        3.75215
H         -1.61582       -4.05840        3.49815
H         -3.25068       -5.18467        1.46768
H         -2.79010       -6.95538       -0.13620
H         -3.10452       -4.70039       -1.21449
H         -1.23170       -3.30847       -1.83572
C          0.66123       -1.84636       -0.78030
C          0.01430       -1.21455       -1.87706
C          0.74992       -0.99137       -3.04446
C          2.05860       -1.38679       -3.14294
C          2.69164       -2.04537       -2.09628
C          4.09655       -2.54824       -2.29860
C          4.40778       -3.77844       -1.43534
C          4.07162       -3.49544        0.03174
C          2.59620       -3.09419        0.21405
C          1.99517       -2.27744       -0.90917
H          1.98894       -3.99901        0.33651
H          4.71798       -2.68838        0.39397
H          5.45821       -4.08283       -1.54727
H          4.79972       -1.74191       -2.06348
H          2.60682       -1.20343       -4.05143
H          0.27482       -0.48559       -3.86656
N         -1.32415       -0.80368       -1.82979
P         -1.85681        0.20833       -0.48472
C         -2.80422       -0.72628        0.71321
C         -3.56261       -1.77621        0.25485
C         -4.35236       -2.49024        1.13800
C         -4.38322       -2.15328        2.48449
C         -3.63289       -1.06886        2.92049
C         -2.84728       -0.35333        2.03522
H         -2.26344        0.48699        2.37168
H         -3.66488       -0.79047        3.95997
C         -5.23195       -2.91910        3.43824
H         -4.94665       -3.31581        0.78566
H         -3.52653       -2.03404       -0.79190
C         -2.98116        1.49254       -1.04557
C         -2.96432        2.72572       -0.43757
C         -3.83308        3.71275       -0.86569
C         -4.73193        3.46548       -1.89455
C         -4.73483        2.21209       -2.49198
C         -3.86419        1.22608       -2.06383
H         -3.87176        0.24909       -2.51978
H         -5.42077        2.01398       -3.29779
C         -5.64497        4.53818       -2.37734
H         -3.81422        4.68543       -0.40454
H         -2.26764        2.91546        0.36360
H         -1.65165       -0.32446       -2.65871
H          0.87296       -0.28166        2.86925
C          1.32332        2.22470        1.90173
C          0.10697        2.65082        2.37921
C          0.02954        3.80997        3.12989
C          1.17310        4.54582        3.41022
C          2.39065        4.10431        2.90935
C          2.46494        2.94573        2.15841
H          3.40772        2.60788        1.76064
H          3.28012        4.67831        3.10557
C          1.08924        5.81034        4.19214
H         -0.92238        4.15245        3.49826
H         -0.77783        2.07828        2.15369
C          3.07934        0.37799        0.55669
C          3.66320        0.75617       -0.62863
C          5.00899        0.52203       -0.83912
C          5.78114       -0.08799        0.13999
C          5.18183       -0.43258        1.34394
C          3.83267       -0.20349        1.54883
H          3.36293       -0.46910        2.48270
H          5.77687       -0.88521        2.11868
C          7.23301       -0.33192       -0.08157
H          5.46996        0.81995       -1.76536
H          3.07067        1.25841       -1.37482
Cl         1.66444        3.11573       -1.08752
H         -1.90071       -6.07067        2.12972
H         -2.05889       -5.72319       -2.17266
H         -1.06554       -6.67190       -0.05984
H         -0.06145       -4.53810       -1.42800
H          4.31671       -4.36434        0.65851
H          2.47241       -2.53723        1.15062
H          4.25267       -2.77526       -3.36092
H          3.81217       -4.63011       -1.78745
H         -6.22125       -2.46793        3.52537
H         -5.36001       -3.95159        3.10999
H         -4.78285       -2.94227        4.43220
H         -5.17045        5.12322       -3.16626
H         -6.56866        4.11864       -2.77839
H         -5.91465        5.21918       -1.56891
H          1.99902        5.97628        4.77079
H          0.95062        6.66595        3.52985
H          0.25223        5.78680        4.89139
H          7.44907       -0.48704       -1.13960
H          7.82545        0.51690        0.26244
H          7.56944       -1.21879        0.45739
