75
-122.81233873
P          1.88394       -0.53997        0.12150
C          1.62151       -1.57232       -1.32330
C          1.27043       -2.88989       -1.13752
C          1.18233       -3.73611       -2.22845
C          1.45300       -3.25652       -3.49479
C          1.80647       -1.93381       -3.67488
C          1.89392       -1.09003       -2.58292
H          2.17659       -0.05708       -2.70504
H          2.01293       -1.55853       -4.66363
H          1.38092       -3.91438       -4.34544
H          0.90329       -4.76747       -2.08884
H          1.08288       -3.25326       -0.13910
C          3.31222       -1.23842        0.97864
C          4.22718       -1.95621        0.24077
C          5.34302       -2.49520        0.85529
C          5.54023       -2.30795        2.20862
C          4.62761       -1.57980        2.94473
C          3.51612       -1.04334        2.32443
H          2.81459       -0.44811        2.88184
H          4.78394       -1.42412        3.99957
H          6.40910       -2.72678        2.68964
H          6.05651       -3.05960        0.27766
H          4.06507       -2.09277       -0.81642
C          2.25875        1.15211       -0.34834
C          3.41322        1.80151        0.02035
C          3.58680        3.14784       -0.27113
C          2.55243        3.83399       -0.90742
C          1.38555        3.19665       -1.26786
C          1.24152        1.82490       -1.00648
O          0.07270        1.13195       -1.35790
C         -1.13454        1.78608       -1.06797
C         -1.29847        3.15797       -1.31657
C         -2.49154        3.76409       -0.99174
C         -3.53014        3.04599       -0.40035
C         -3.35111        1.69151       -0.15574
C         -2.17101        1.06925       -0.48996
P         -1.77059       -0.64990       -0.11390
C         -3.06975       -1.39487        0.88897
C         -4.35344       -1.40838        0.39205
C         -5.37087       -1.99122        1.12572
C         -5.09295       -2.56609        2.34964
C         -3.80114       -2.56573        2.83663
C         -2.78629       -1.98283        2.10041
H         -1.77392       -1.98467        2.47000
H         -3.58284       -3.01807        3.79007
H         -5.88454       -3.01937        2.92374
H         -6.37717       -1.99876        0.74026
H         -4.55177       -0.97642       -0.57651
C         -1.73380       -1.57744       -1.65855
C         -1.41004       -0.95289       -2.84103
C         -1.47284       -1.65131       -4.03219
C         -1.85449       -2.97810       -4.03081
C         -2.16999       -3.60603       -2.84226
C         -2.11168       -2.90114       -1.65348
H         -2.37153       -3.37480       -0.72025
H         -2.46501       -4.64243       -2.83995
H         -1.89922       -3.52618       -4.95772
H         -1.21511       -1.16268       -4.95736
H         -1.08991        0.07504       -2.82362
Pd        -0.04590       -0.06431        1.42854
Cl        -1.72900        0.93676        2.57094
Cl         1.32806        1.03862        2.84011
H         -4.13055        1.13090        0.32797
C         -4.81388        3.71345       -0.05593
H         -5.28300        3.23979        0.80747
H         -5.51373        3.66163       -0.89092
H         -4.65710        4.76481        0.18865
H         -2.61528        4.81419       -1.18940
S          0.04493        4.06689       -2.03796
H          2.65689        4.88539       -1.10926
C          4.82114        3.85982        0.15369
H          4.17436        1.26482        0.55963
H          5.04176        4.69642       -0.51049
H          4.71136        4.25200        1.16551
H          5.68323        3.19160        0.14325
