87
-129.18871603
P         -1.57247       -0.30688       -0.28478
P          1.61914        0.36134       -0.04257
C         -1.29160        0.97945       -1.51214
C          1.46040       -0.67745       -1.50783
C         -0.27924        0.85239       -2.45707
C         -0.04961        1.91567       -3.35267
C         -0.85250        3.04185       -3.28623
C         -1.86115        3.14208       -2.35225
C         -2.07395        2.10764       -1.46286
C          2.23115       -1.81348       -1.56790
C          2.10789       -2.68655       -2.63034
C          1.19637       -2.42048       -3.62876
C          0.40533       -1.28512       -3.58861
C          0.54727       -0.38278       -2.51601
Cl         1.19423        0.37108        3.26208
Cl        -1.47065       -1.29278        2.84875
H         -2.47400        4.02749       -2.30882
H         -2.85513        2.18251       -0.72497
H          2.93474       -2.02187       -0.77950
H          2.71428       -3.57647       -2.67266
H         -0.67395        3.85098       -3.97398
H          1.08569       -3.10483       -4.45278
C         -1.73145       -4.43442       -2.17370
C         -0.90947       -4.22188       -1.07545
C         -0.88538       -2.95704       -0.50107
C         -1.66168       -1.94309       -1.01246
C         -2.48235       -2.16397       -2.09340
C         -2.51888       -3.41711       -2.67647
H         -1.74716       -5.40688       -2.63555
C         -0.03062       -5.30313       -0.55344
H         -0.24678       -2.76637        0.34475
H         -3.07556       -1.35228       -2.48458
H         -3.15409       -3.59610       -3.52843
C         -5.33278        0.65103        2.10419
C         -5.31780       -0.44030        1.25813
C         -4.17926       -0.73460        0.53203
C         -3.06776        0.06583        0.65266
C         -3.07937        1.15142        1.49830
C         -4.21155        1.45736        2.24292
H         -6.21923        0.88296        2.66957
H         -6.19164       -1.06423        1.16565
H         -4.15072       -1.58870       -0.12428
H         -2.19960        1.76642        1.59073
C         -4.21943        2.64167        3.14410
C          5.32743       -0.81145        2.33143
C          5.28343        0.40745        1.68405
C          4.16107        0.76395        0.96061
C          3.09247       -0.09879        0.88932
C          3.13378       -1.31297        1.53588
C          4.25634       -1.69133        2.26204
H          6.19627       -1.08702        2.90457
H          6.12051        1.08329        1.74728
H          4.10985        1.71636        0.45930
H          2.28083       -1.97028        1.49326
C          4.27942       -2.98846        2.99091
C          1.53270        4.80399       -0.98976
C          2.41770        3.97732       -1.65400
C          2.45189        2.62626       -1.36217
C          1.60700        2.11832       -0.40362
C          0.73574        2.94158        0.27165
C          0.67372        4.29750       -0.02401
H          1.50135        5.85545       -1.21917
H          3.07615        4.38263       -2.40468
H          3.12240        1.96236       -1.88495
H          0.09171        2.53071        1.03016
C         -0.27702        5.18265        0.70182
Pd        -0.04864       -0.21178        1.48349
C          1.04197        1.86029       -4.36444
C         -0.58136       -1.05003       -4.67940
H          0.63782        1.69793       -5.36435
H          1.60566        2.79418       -4.37858
H          1.74637        1.05597       -4.14978
H         -1.12814       -1.96494       -4.91186
H         -1.31464       -0.29294       -4.39965
H         -0.08245       -0.71744       -5.59042
H          0.94666       -5.27396       -1.03739
H          0.12349       -5.19835        0.52154
H         -0.46676       -6.28697       -0.73181
H         -3.26222        2.74712        3.65700
H         -4.40203        3.55718        2.57961
H         -4.99520        2.55452        3.90602
H          5.30046       -3.34751        3.12737
H          3.82315       -2.88471        3.97633
H          3.72820       -3.75513        2.44433
H         -1.20107        4.65281        0.93884
H          0.15892        5.53477        1.63770
H         -0.54074        6.05492        0.10208
