75
-122.81801210
P          1.85740       -0.56416       -0.00944
C          1.71410       -1.56142       -1.49776
C          1.66665       -0.97147       -2.73990
C          1.64556       -1.75919       -3.87580
C          1.67098       -3.13476       -3.75874
C          1.71282       -3.72327       -2.51028
C          1.73670       -2.93191       -1.37578
H          1.78730       -3.37560       -0.39382
H          1.72881       -4.79680       -2.41865
H          1.65057       -3.75027       -4.64322
H          1.60412       -1.29935       -4.84943
H          1.63813        0.10291       -2.81497
C          3.18889       -1.28647        0.96240
C          4.45245       -1.31968        0.41746
C          5.49353       -1.89080        1.12707
C          5.25855       -2.43380        2.37451
C          3.98622       -2.41241        2.91019
C          2.94772       -1.84103        2.19820
H          1.95017       -1.82017        2.60602
H          3.80164       -2.83858        3.88261
H          6.06871       -2.87801        2.92950
H          6.48470       -1.91388        0.70483
H          4.61627       -0.90866       -0.56657
C          2.21909        1.14818       -0.43225
C          3.37942        1.79706       -0.08016
C          3.54302        3.14823       -0.35136
C          2.50653        3.83461       -0.98275
C          1.33221        3.20064       -1.32308
C          1.18412        1.83058       -1.05436
O         -0.00507        1.15082       -1.36729
C         -1.19620        1.82732       -1.05483
C         -1.34769        3.19707       -1.32340
C         -2.52316        3.82827       -0.98186
C         -3.56262        3.13651       -0.36127
C         -3.38934        1.78940       -0.07597
C         -2.22802        1.14308       -0.42943
P         -1.85965       -0.56612        0.00003
C         -3.19115       -1.29228        0.96907
C         -2.95087       -1.84760        2.20468
C         -3.98925       -2.42255        2.91398
C         -5.26050       -2.44664        2.37577
C         -5.49454       -1.90270        1.12857
C         -4.45357       -1.32806        0.42165
H         -4.61655       -0.91616       -0.56215
H         -6.48484       -1.92782        0.70440
H         -6.07060       -2.89360        2.92862
H         -3.80543       -2.84953        3.88618
H         -1.95413       -1.82433        2.61436
C         -1.70489       -1.56932       -1.48311
C         -1.66777       -0.98608       -2.72874
C         -1.63706       -1.78023       -3.85994
C         -1.64272       -3.15531       -3.73466
C         -1.67445       -3.73693       -2.48268
C         -1.70793       -2.93923       -1.35289
H         -1.75095       -3.37769       -0.36821
H         -1.67510       -4.81001       -2.38464
H         -1.61465       -3.77575       -4.61547
H         -1.60340       -1.32570       -4.83635
H         -1.65492        0.08814       -2.81015
Pd         0.00231       -0.05269        1.36728
Cl        -1.57348        0.83741        2.72181
Cl         1.56981        0.84736        2.72358
H         -4.15800        1.25245        0.45098
C         -4.80681        3.84058        0.04804
H         -4.73027        4.19175        1.07783
H         -5.67175        3.17932       -0.01900
H         -4.99930        4.70436       -0.58957
H         -2.63053        4.87884       -1.18665
S         -0.00876        4.07607       -2.08553
H          2.61571        4.88276       -1.19861
C          4.80764        3.84259        0.01004
H          4.15588        1.25814        0.43310
H          5.21273        3.45533        0.94589
H          5.56096        3.70448       -0.76655
H          4.64710        4.91388        0.13744
