64
-97.22211818
Cl        -1.32301       -0.17667       -2.82640
Cl         1.82472       -0.75798       -2.95829
P          1.92792       -0.73081        0.31583
C          1.98806       -2.48788        0.90845
C          3.75233       -0.45499        0.09127
P         -1.25467       -0.30146        0.40873
C          1.22637        0.42986        1.54389
C         -0.21066        0.60593        1.61325
C         -0.48505        1.62021        2.62044
C          0.78817        2.07460        3.15288
C          1.84944        1.32329        2.50600
H         -1.47210        1.95350        2.94593
H          0.92215        2.82273        3.93731
Pd         0.28144       -0.67308       -1.33878
H          2.92115        1.42310        2.68671
C         -5.12956        1.78021       -0.79838
C         -4.85394        0.49635       -1.22469
C         -3.67337       -0.11707       -0.84468
C         -2.77328        0.55370       -0.04837
C         -3.05239        1.82960        0.38492
C         -4.22995        2.44795        0.00836
H         -6.04740        2.26108       -1.09516
H         -5.55404       -0.02689       -1.85505
H         -3.44308       -1.11812       -1.17424
H         -2.34690        2.34129        1.01452
H         -4.44383        3.44962        0.34360
C         -2.43925       -4.36824        2.04845
C         -2.04673       -4.25144        0.72922
C         -1.69070       -3.01445        0.22322
C         -1.72507       -1.90881        1.04139
C         -2.12413       -2.01607        2.35363
C         -2.48135       -3.25253        2.86178
H         -2.71648       -5.33205        2.44338
H         -2.01874       -5.12144        0.09390
H         -1.39199       -2.90565       -0.80706
H         -2.14695       -1.13381        2.97407
H         -2.79049       -3.34361        3.89009
C          4.13266        0.46779       -1.04539
H          4.10266       -0.04458        1.04770
C          4.27841       -1.89013       -0.07973
H          5.35228       -1.93620        0.15795
C          3.47100       -2.89242        0.78519
H          4.19777       -2.16880       -1.13982
C          1.45706       -2.58672        2.32227
H          1.36612       -3.06398        0.21049
H          3.90916       -2.93632        1.79132
H          3.55865       -3.91344        0.38540
H          0.42872       -2.22942        2.38864
H          1.48195       -3.61561        2.68875
H          2.05526       -1.97535        3.00092
H          5.21651        0.51342       -1.16973
H          3.71172        0.11924       -1.98794
H          3.77934        1.48422       -0.87494
Fe         0.70728        2.34818        1.10815
C          1.04565        4.30009        0.54625
C         -0.28071        3.84930        0.15966
C         -0.13573        2.71730       -0.73775
C          1.27991        2.43997       -0.87053
C          2.01089        3.41273       -0.07875
H          1.27516        5.15167        1.19074
H         -1.22121        4.33370        0.43263
H         -0.93523        2.17606       -1.24753
H          1.70339        1.67462       -1.52376
H          3.09682        3.49845        0.00003
