87
-129.18392718
P         -1.78977       -0.38305       -0.13097
P          1.52756        0.18144       -0.18437
C         -1.46339        0.98779       -1.26800
C          1.24110       -0.72826       -1.70499
C         -0.50365        0.95665       -2.27880
C         -0.23302        2.13897       -2.99461
C         -0.94832        3.28819       -2.70679
C         -1.90613        3.29795       -1.71723
C         -2.15161        2.14685       -0.99488
C          1.99794       -1.83845       -1.98846
C          1.78883       -2.53716       -3.16103
C          0.81840       -2.11440       -4.04517
C          0.04379       -0.99758       -3.77752
C          0.26295       -0.28088       -2.58387
Cl         1.25516        0.97149        2.95906
Cl        -1.48687       -0.67774        3.08690
H         -2.44991        4.20195       -1.49694
H         -2.88154        2.15508       -0.20196
H          2.76049       -2.15514       -1.29662
H          2.38001       -3.41060       -3.38228
H         -0.73876        4.18670       -3.26215
H          0.64948       -2.65896       -4.95864
C         -0.96104       -4.59335       -1.62547
C         -0.49471       -4.20214       -0.37807
C         -0.78096       -2.91512        0.06026
C         -1.49576       -2.04793       -0.73406
C         -1.98050       -2.45370       -1.95469
C         -1.71010       -3.73272       -2.40405
H         -0.73506       -5.58415       -1.98116
C          0.32472       -5.12476        0.45383
H         -0.47146       -2.60010        1.04240
H         -2.54819       -1.76252       -2.55691
H         -2.07228       -4.05223       -3.36742
C         -5.99065       -0.01586        1.58536
C         -5.73373       -0.91498        0.56935
C         -4.45444       -1.03119        0.05848
C         -3.44328       -0.24782        0.56468
C         -3.69849        0.65045        1.57503
C         -4.97561        0.77300        2.10864
H         -6.98662        0.07826        1.98347
H         -6.52885       -1.52607        0.17461
H         -4.23919       -1.73104       -0.73243
H         -2.89592        1.25153        1.96961
C         -5.24576        1.75269        3.19591
C          4.71463       -1.87363        2.34249
C          3.58205       -2.56801        1.96629
C          2.62097       -1.94864        1.19085
C          2.79977       -0.64411        0.79344
C          3.92520        0.05056        1.17076
C          4.90557       -0.55716        1.94597
H          5.46024       -2.34969        2.95630
H          3.44327       -3.58902        2.28212
H          1.73037       -2.47664        0.89338
H          4.03999        1.07899        0.87356
C          6.10571        0.20677        2.38263
C          2.73680        4.44363       -1.17845
C          3.41297        3.38327       -1.74962
C          3.05085        2.08595       -1.43726
C          2.02453        1.86401       -0.54953
C          1.35443        2.91690        0.02815
C          1.69310        4.22645       -0.28919
H          3.01593        5.45466       -1.42162
H          4.21773        3.56552       -2.44281
H          3.55552        1.24480       -1.88639
H          0.55665        2.72425        0.72544
C          0.96835        5.36422        0.33863
Pd        -0.13081        0.04838        1.45226
C          0.81530        2.18700       -4.05201
C         -0.99995       -0.58036       -4.75426
H          1.41858        3.09117       -3.95886
H          1.49239        1.33496       -3.98398
H          0.36625        2.18397       -5.04588
H         -0.54730       -0.12414       -5.63548
H         -1.58778       -1.43772       -5.08536
H         -1.69014        0.14234       -4.31748
H          1.36905       -5.10497        0.13872
H          0.28633       -4.84521        1.50770
H         -0.03376       -6.15165        0.37006
H         -4.40300        1.81108        3.88635
H         -5.41592        2.74935        2.78632
H         -6.12715        1.46995        3.77315
H          6.96111       -0.45359        2.53205
H          6.38870        0.95277        1.63853
H          5.91175        0.72574        3.32233
H         -0.08254        5.11783        0.49813
H          1.40587        5.61533        1.30581
H          1.00768        6.25380       -0.29161
