87
-129.18797028
P         -1.56919       -0.30577       -0.30612
P          1.64311        0.36828       -0.00816
C         -1.26735        0.97843       -1.52882
C          1.48205       -0.68331       -1.46562
C         -0.24273        0.83864       -2.45805
C         -0.00352        1.88826       -3.36714
C         -0.80600        3.01606       -3.32397
C         -1.82388        3.13048       -2.40139
C         -2.04896        2.10761       -1.50164
C          2.23795       -1.83068       -1.49444
C          2.11449       -2.72409       -2.53987
C          1.21729       -2.46672       -3.55329
C          0.43937       -1.32174       -3.54368
C          0.58056       -0.39976       -2.48803
Cl         1.16893        0.42879        3.22044
Cl        -1.43846       -1.50393        2.71208
H         -2.43630        4.01692       -2.37683
H         -2.83951        2.19100       -0.77463
H          2.92844       -2.03281       -0.69271
H          2.70849       -3.62317       -2.55658
H         -0.62014        3.81513       -4.02145
H          1.10659       -3.16616       -4.36454
C         -1.87153       -4.40376       -2.23971
C         -1.01727       -4.22324       -1.16051
C         -0.96131       -2.97051       -0.56232
C         -1.71470       -1.92911       -1.05184
C         -2.55365       -2.11312       -2.12564
C         -2.63662       -3.35886       -2.71985
H         -1.93225       -5.37375       -2.70303
C         -0.19951       -5.34779       -0.63079
H         -0.31905       -2.81149        0.28732
H         -3.12890       -1.28045       -2.49907
H         -3.29339       -3.51171       -3.56049
C         -5.27458        0.73799        2.13224
C         -5.29351       -0.35821        1.29250
C         -4.17192       -0.67886        0.55131
C         -3.04348        0.10041        0.65071
C         -3.02125        1.19061        1.49019
C         -4.13585        1.52282        2.24985
H         -6.14804        0.99102        2.70871
H         -6.18074       -0.96522        1.21638
H         -4.16969       -1.53692       -0.10049
H         -2.12989        1.79102        1.56291
C         -4.10917        2.71390        3.14168
C          5.41100       -0.70789        2.31511
C          5.34881        0.48298        1.61891
C          4.20680        0.80975        0.91226
C          3.13680       -0.05425        0.90697
C          3.19661       -1.24090        1.60128
C          4.33888       -1.58927        2.31165
H          6.29541       -0.96002        2.87509
H          6.18717        1.16010        1.63059
H          4.14151        1.74005        0.37245
H          2.34326       -1.89896        1.60902
C          4.38310       -2.85500        3.09288
C          1.39432        4.81507       -0.90685
C          2.27788        4.02219       -1.61303
C          2.36721        2.67080       -1.33453
C          1.57372        2.12762       -0.35171
C          0.70838        2.91861        0.36819
C          0.60264        4.27715        0.09866
H          1.31120        5.86410       -1.13444
H          2.88942        4.45344       -2.38854
H          3.03644        2.03283       -1.88998
H          0.10854        2.48102        1.14737
C         -0.37874        5.11567        0.83889
Pd        -0.05131       -0.25619        1.46914
C          1.09558        1.81539       -4.36954
C         -0.53355       -1.09769       -4.64914
H          1.66367        2.74646       -4.39127
H          1.79432        1.01038       -4.13955
H          0.69824        1.64224       -5.37040
H         -0.02263       -0.78004       -5.55884
H         -1.08172       -2.01337       -4.87522
H         -1.26666       -0.33368       -4.38848
H         -0.72905       -5.86888        0.16794
H          0.02951       -6.07212       -1.41372
H          0.74763       -4.98638       -0.22713
H         -4.84696        2.62654        3.94043
H         -3.12946        2.83049        3.60755
H         -4.32558        3.62371        2.57993
H          5.40768       -3.20936        3.21419
H          3.95599       -2.70972        4.08610
H          3.81599       -3.64299        2.59509
H         -0.07282        6.16263        0.85362
H         -1.36396        5.05797        0.37376
H         -0.47598        4.78337        1.87354
