111
-148.55988521
P         -2.57180       -2.18865       -0.59058
P          0.03355       -0.37655       -0.47722
C         -1.58826       -1.92666       -2.09112
C         -0.44540       -1.15857       -2.03055
C         -3.29022       -3.89168       -0.51704
C         -2.56476       -4.74697        0.49877
C         -1.98357       -2.47905       -3.29269
H         -2.89000       -3.05991       -3.34020
C         -1.22263       -2.27121       -4.43017
H         -1.52965       -2.70378       -5.36840
C         -0.07259       -1.50837       -4.36496
H          0.51975       -1.34601       -5.25039
C          0.31448       -0.94613       -3.16183
H          1.20583       -0.34214       -3.09666
Pd        -1.22635       -1.46192        1.12764
Cl        -2.78532       -2.13574        2.59546
Cl         0.15136       -0.71753        2.73567
C         -4.77068       -3.62105       -0.18784
C         -4.11556       -1.17150       -0.55417
H         -1.50446       -4.84248        0.25256
H         -2.63067       -4.30529        1.49433
H         -2.99268       -5.75068        0.55444
H         -4.90256       -3.66698        0.90206
H         -5.40730       -4.42061       -0.59643
H         -4.15429       -0.71350        0.44306
C         -5.22801       -2.22637       -0.70399
C         -4.09963       -0.11280       -1.63647
H         -3.19357       -4.32018       -1.52246
H         -5.50366       -2.30138       -1.76491
H         -6.14069       -1.89579       -0.18516
H         -4.01495       -0.57107       -2.62355
H         -5.01452        0.48419       -1.62562
H         -3.25042        0.56447       -1.51872
C         -1.15047        4.02426       -0.41631
C         -0.20403        3.55586       -1.36301
C          0.13659        2.21312       -1.34097
C         -0.47819        1.34094       -0.48090
C         -1.47490        1.77002        0.35649
C         -1.86185        3.09849        0.38826
O         -1.35480        5.41916       -0.24396
C          0.47517        4.48235       -2.38376
H          0.90588        1.83085       -1.98947
H         -1.93981        1.05629        1.01196
C         -3.00583        3.51902        1.32416
C          4.46187       -0.74627        0.51438
C          3.73290        0.40080        0.91895
C          2.38615        0.46464        0.60398
C          1.78395       -0.51631       -0.13870
C          2.50506       -1.57981       -0.61470
C          3.85800       -1.70244       -0.34251
O          5.78083       -0.95691        0.99723
C          4.36181        1.54884        1.72335
H          1.77735        1.28065        0.95404
H          1.99065       -2.32155       -1.20067
C          4.64063       -2.87535       -0.95396
C         -0.45443        5.64080       -2.78894
C          1.77743        5.03320       -1.78344
C          0.81660        3.70796       -3.67730
C         -4.02493        2.36904        1.49476
C         -2.42751        3.86833        2.70375
C         -3.77927        4.72038        0.75132
C         -0.48793        6.01537        0.71307
H          0.00245        6.25798       -3.56215
H         -1.39879        5.25791       -3.17435
H         -0.67700        6.28608       -1.94293
H          1.58606        5.59150       -0.87009
H          2.46130        4.22118       -1.53861
H          2.28084        5.69740       -2.48547
H          1.59766        2.96770       -3.51075
H         -0.06357        3.19661       -4.06632
H          1.17876        4.38595       -4.44983
H         -4.89551        2.70463        2.05770
H         -4.37197        2.01251        0.52570
H         -3.59912        1.52773        2.03937
H         -3.21703        4.15934        3.39606
H         -1.90379        3.01241        3.12897
H         -1.71857        4.69016        2.63736
H         -3.14651        5.60125        0.67733
H         -4.15498        4.49421       -0.24603
H         -4.62862        4.97733        1.38381
H         -1.07882        6.47411        1.50569
H          0.17752        5.26566        1.14317
H          0.10432        6.79543        0.23501
C          5.83960       -1.68569        2.21701
C          5.84839        1.72998        1.36743
C          3.65723        2.88762        1.40351
C          4.20543        1.25817        3.22368
C          6.10647       -2.48629       -1.21933
C          4.57649       -4.08058       -0.00377
C          4.03194       -3.28620       -2.31432
H          6.27581        2.58380        1.89260
H          6.43136        0.85308        1.63719
H          5.96911        1.89471        0.29725
H          4.17932        3.72152        1.87211
H          3.63809        3.06641        0.32905
H          2.63284        2.90503        1.77259
H          4.70650        0.33361        3.50022
H          4.62767        2.06340        3.82422
H          3.15309        1.15500        3.48747
H          6.63091       -2.26018       -0.29430
H          6.64373       -3.29583       -1.71276
H          6.15995       -1.60498       -1.85761
H          5.01677       -3.84503        0.96208
H          3.54319       -4.38123        0.16785
H          5.11231       -4.93393       -0.41867
H          3.04427       -3.72967       -2.19746
H          4.65816       -4.02758       -2.81014
H          3.94540       -2.42487       -2.97626
H          6.43599       -2.58695        2.07593
H          6.31822       -1.07775        2.98452
H          4.83588       -1.96030        2.54406
