111
-148.55478635
P         -1.77890       -2.72970       -0.50148
P         -0.52945        0.17827       -0.42588
C         -1.56527       -1.79393       -2.04296
C         -1.09477       -0.49835       -1.99933
C         -0.62979       -4.17868       -0.46978
C          0.40404       -4.02122        0.62521
C         -1.84031       -2.38339       -3.26047
H         -2.16636       -3.41004       -3.29270
C         -1.67048       -1.66273       -4.43002
H         -1.88894       -2.12200       -5.38028
C         -1.21511       -0.35914       -4.38165
H         -1.07730        0.19982       -5.29257
C         -0.91575        0.22128       -3.16235
H         -0.52411        1.22470       -3.10934
Pd        -1.55299       -1.14548        1.16985
Cl        -2.81407       -2.44934        2.48679
Cl        -1.20691        0.46231        2.70002
C         -1.57514       -5.38188       -0.28092
C         -3.40796       -3.60733       -0.40408
H          1.01867       -3.13222        0.46987
H         -0.07884       -3.91780        1.59909
H          1.07002       -4.88589        0.67364
H         -1.58335       -5.65825        0.78233
H         -1.18334       -6.26360       -0.81013
H         -3.72130       -3.54042        0.64563
C         -3.02664       -5.06048       -0.73846
C         -4.46242       -2.99443       -1.30104
H         -0.15540       -4.21143       -1.45917
H         -3.11503       -5.21179       -1.82295
H         -3.74611       -5.75890       -0.28424
H         -4.61784       -1.93955       -1.06377
H         -4.17234       -3.05403       -2.35016
H         -5.42027       -3.50933       -1.19803
C         -0.51122        4.72912       -0.31782
C         -1.54853        4.01952        0.34034
C         -1.55295        2.63655        0.25953
C         -0.53837        1.96467       -0.36946
C          0.52378        2.64038       -0.91179
C          0.58691        4.02341       -0.87217
O         -0.58717        6.14164       -0.44652
C         -2.65809        4.72759        1.13396
H         -2.34577        2.05946        0.70305
H          1.31273        2.06502       -1.36571
C          1.82824        4.73108       -1.43793
C          3.67325       -1.39639        0.35540
C          3.07242       -1.59252       -0.91446
C          1.80967       -1.06845       -1.13076
C          1.12825       -0.43359       -0.12626
C          1.65975       -0.33698        1.13209
C          2.91413       -0.84534        1.41929
O          5.04157       -1.72297        0.55040
C          3.77629       -2.34549       -2.05359
H          1.33749       -1.15207       -2.09347
H          1.05754        0.12015        1.89770
C          3.42510       -0.79275        2.86724
C         -3.16661        3.82531        2.28189
C         -2.13400        6.02256        1.78116
C         -3.83464        5.04233        0.19827
C          2.11295        6.04130       -0.68142
C          3.08232        3.83997       -1.28152
C          1.61275        5.01805       -2.93150
C         -1.25947        6.58149       -1.61971
H         -3.85245        4.37122        2.92921
H         -3.70591        2.95787        1.90464
H         -2.33708        3.47252        2.89417
H         -2.90011        6.49004        2.39919
H         -1.27025        5.81357        2.41144
H         -1.83076        6.74706        1.02936
H         -4.64290        5.53369        0.73933
H         -3.52795        5.69686       -0.61402
H         -4.23067        4.12836       -0.24369
H          2.22131        5.85197        0.38600
H          3.03038        6.50872       -1.03825
H          1.30644        6.75842       -0.81248
H          3.03467        2.95932       -1.92040
H          3.98284        4.38723       -1.55931
H          3.19673        3.50921       -0.24944
H          2.48184        5.51363       -3.36340
H          1.44385        4.09233       -3.48121
H          0.74792        5.65823       -3.08883
H         -0.58066        7.17841       -2.22850
H         -1.61223        5.72749       -2.19930
H         -2.10695        7.20777       -1.34150
C          5.93375       -0.64490        0.29818
C          4.67366       -3.46746       -1.50072
C          2.74287       -3.01499       -2.98824
C          4.61241       -1.35433       -2.87674
C          4.37065       -1.97023        3.16605
C          4.14793        0.54197        3.10207
C          2.24647       -0.90050        3.86248
H          4.09513       -4.14965       -0.87856
H          5.12354       -4.04370       -2.30880
H          5.48147       -3.06584       -0.89381
H          2.05463       -3.63970       -2.42005
H          2.16180       -2.27913       -3.54217
H          3.23941       -3.64840       -3.72293
H          5.11369       -1.85803       -3.70286
H          3.98043       -0.56981       -3.29251
H          5.37278       -0.87660       -2.26361
H          5.26999       -1.92169        2.55731
H          4.67971       -1.96943        4.21100
H          3.87789       -2.91958        2.95862
H          4.99768        0.65295        2.43251
H          3.47479        1.38047        2.92463
H          4.51372        0.61317        4.12604
H          1.60925       -0.01811        3.83220
H          2.61059       -0.99613        4.88502
H          1.63219       -1.77344        3.64295
H          6.48639       -0.40599        1.20656
H          6.65010       -0.93690       -0.46961
H          5.38251        0.23572       -0.03426
