111
-148.55541832
P         -1.69123       -2.68420        0.18439
P         -0.45366        0.14309       -0.51878
C         -1.73079       -2.08049       -1.52682
C         -1.24591       -0.82345       -1.81934
C         -0.59207       -4.16450        0.32452
C          0.64770       -3.83965        1.13027
C         -2.21216       -2.88442       -2.54017
H         -2.55380       -3.88073       -2.31152
C         -2.22997       -2.41545       -3.84241
H         -2.60966       -3.04135       -4.63343
C         -1.75516       -1.15022       -4.13058
H         -1.76359       -0.78752       -5.14524
C         -1.25141       -0.35537       -3.11666
H         -0.84592        0.62146       -3.32904
Pd        -1.13485       -0.83619        1.45825
Cl        -1.72344       -2.09881        3.21867
Cl        -0.72113        1.08771        2.53591
C         -1.50776       -5.22560        0.96625
C         -3.29623       -3.41089        0.75574
H          0.37853       -3.50123        2.13277
H          1.29549       -4.71291        1.23683
H          1.22883       -3.04225        0.66240
H         -1.31762       -5.24496        2.04815
H         -1.24308       -6.23021        0.60321
H         -3.41721       -3.08103        1.79599
C         -3.01330       -4.92354        0.71537
C         -4.47515       -2.95474       -0.07768
H         -0.33048       -4.44824       -0.70344
H         -3.30937       -5.31461       -0.26769
H         -3.64688       -5.45049        1.44515
H         -5.41288       -3.36949        0.29902
H         -4.56177       -1.86575       -0.07702
H         -4.37154       -3.27363       -1.11509
C         -1.01915        4.65230       -0.85407
C          0.24664        4.12747       -0.48263
C          0.38216        2.75292       -0.38820
C         -0.65150        1.91163       -0.70668
C         -1.83981        2.41020       -1.17373
C         -2.03958        3.77497       -1.30920
O         -1.28849        6.03612       -0.69669
C          1.47908        4.99285       -0.16986
H          1.30674        2.32301       -0.04579
H         -2.62174        1.71516       -1.43048
C         -3.34745        4.24924       -1.96597
C          3.78145       -1.43766        0.03381
C          3.25551       -0.49883        0.95790
C          1.96953       -0.03033        0.75397
C          1.25276       -0.38595       -0.35796
C          1.79214       -1.21816       -1.30321
C          3.06843       -1.73472       -1.15602
O          4.99702       -2.11398        0.32107
C          4.02377       -0.02856        2.20200
H          1.48026        0.57689        1.49590
H          1.18545       -1.48739       -2.14975
C          3.62900       -2.65372       -2.25205
C          1.32248        6.43831       -0.67302
C          1.72327        4.99898        1.34843
C          2.71877        4.40146       -0.87763
C         -3.61003        3.41807       -3.24174
C         -4.51546        4.04960       -0.98630
C         -3.28447        5.72474       -2.39799
C         -1.82178        6.34984        0.57911
H          2.24072        7.00677       -0.52728
H          1.07879        6.45131       -1.73476
H          0.52760        6.95676       -0.14220
H          0.88134        5.43688        1.88081
H          1.86058        3.98579        1.72439
H          2.61441        5.57429        1.59794
H          2.97653        3.41681       -0.49155
H          2.54161        4.30813       -1.94868
H          3.58895        5.04185       -0.73561
H         -4.49043        3.78402       -3.76942
H         -2.76091        3.47960       -3.92186
H         -3.78282        2.36776       -3.01324
H         -5.45892        4.35504       -1.43800
H         -4.60564        3.00341       -0.69577
H         -4.37341        4.63425       -0.07955
H         -2.42114        5.90098       -3.03868
H         -4.18056        6.01187       -2.94767
H         -3.20126        6.38467       -1.53780
H         -2.75884        5.81788        0.73397
H         -1.12088        6.05752        1.35912
H         -2.00202        7.42334        0.63960
C          4.83171       -3.31559        1.06457
C          3.69068       -0.95527        3.38131
C          5.54170       -0.01057        1.94757
C          3.61586        1.41467        2.57776
C          5.15934       -2.52498       -2.35649
C          3.23682       -4.10693       -1.94312
C          3.04988       -2.27244       -3.63375
H          3.97901       -1.98226        3.17019
H          4.20962       -0.63869        4.28559
H          2.62023       -0.94776        3.58606
H          6.07894        0.38156        2.81076
H          5.92395       -1.00823        1.74821
H          5.77862        0.61506        1.08765
H          2.58463        1.46715        2.92327
H          4.24219        1.79627        3.38370
H          3.72669        2.08210        1.72378
H          5.54849       -3.12953       -3.17537
H          5.44575       -1.48887       -2.53370
H          5.64907       -2.85440       -1.44366
H          3.63520       -4.42821       -0.98383
H          2.15291       -4.21299       -1.90355
H          3.61428       -4.78448       -2.70850
H          1.98523       -2.49199       -3.70011
H          3.54137       -2.83471       -4.42742
H          3.19547       -1.21158       -3.83568
H          3.77626       -3.49295        1.27309
H          5.23592       -4.15463        0.49850
H          5.37962       -3.24425        2.00397
