171
-217.84538746
P         -1.59717        0.34018       -0.49660
P          1.62244       -0.36294       -0.20613
C         -0.80112        1.31101       -1.77606
C          1.05699       -1.34185       -1.60131
C          0.08886        0.71270       -2.66047
C          0.76004        1.52465       -3.59540
C          0.48444        2.88144       -3.63485
C         -0.42633        3.44857       -2.76863
C         -1.06100        2.65815       -1.83053
C          1.31248       -2.69174       -1.59219
C          0.82855       -3.49859       -2.60255
C          0.07180       -2.94428       -3.61270
C         -0.19769       -1.58581       -3.64022
C          0.32219       -0.75796       -2.62705
Cl         1.25116        0.19576        3.01643
Cl        -1.86009       -0.54990        2.67297
C         -1.01598       -1.02311       -4.74852
C          1.75466        0.95472       -4.54545
H         -0.63782        4.50418       -2.81873
H         -1.76310        3.09259       -1.13694
H          1.89481       -3.11854       -0.79210
H          1.03639       -4.55614       -2.59628
H          0.99520        3.49629       -4.35668
H         -0.31998       -3.57063       -4.39634
C         -3.77706       -3.31813       -2.01795
C         -2.77864       -3.47602       -1.06480
C         -2.11985       -2.33731       -0.61947
C         -2.43565       -1.10581       -1.13614
C         -3.41079       -0.96795       -2.09332
C         -4.11935       -2.07634       -2.54115
H         -4.30776       -4.19134       -2.34726
H         -1.35666       -2.40008        0.13663
H         -3.62865        0.01344       -2.48084
C         -4.43674        2.76291        2.09253
C         -3.07851        3.05677        2.12680
C         -2.23651        2.33944        1.28742
C         -2.73330        1.35320        0.47100
C         -4.07671        1.07194        0.45683
C         -4.95870        1.77279        1.26828
H         -5.10218        3.30972        2.73211
H         -1.17666        2.53041        1.29473
H         -4.43954        0.28443       -0.17963
C          4.36645       -2.72766        2.53229
C          3.03938       -3.12505        2.41060
C          2.22229       -2.41039        1.54480
C          2.71123       -1.33165        0.85137
C          4.01980       -0.94470        0.99571
C          4.87845       -1.63851        1.83637
H          5.01417       -3.27424        3.19008
H          1.18801       -2.68537        1.42445
H          4.37449       -0.08365        0.45702
C          3.83861        3.44245       -1.21932
C          2.77338        3.50644       -0.32885
C          2.07551        2.33423       -0.07009
C          2.44679        1.15643       -0.66903
C          3.50510        1.10734       -1.54253
C          4.22682        2.25862       -1.83508
H          4.39828        4.33375       -1.43105
H          1.24406        2.33212        0.61334
H          3.77157        0.15841       -1.97647
Pd        -0.15001       -0.10546        1.28496
C         -1.25311       -4.83371        0.44883
C         -2.46229       -4.86970       -0.50567
C         -2.13457       -5.82832       -1.66581
C         -3.68519       -5.38993        0.27015
H         -1.01764       -5.83348        0.81328
H         -0.37012       -4.44789       -0.05930
H         -1.45485       -4.20684        1.31710
H         -1.86438       -6.81544       -1.29114
H         -2.98501       -5.94958       -2.33539
H         -1.29844       -5.44998       -2.25266
H         -3.48928       -6.37505        0.69317
H         -3.93693       -4.71460        1.08771
H         -4.55761       -5.47039       -0.37749
C         -6.26319       -0.85967       -3.01108
C         -5.25946       -1.89388       -3.55508
C         -6.01519       -3.21312       -3.80715
C         -4.68407       -1.39666       -4.89202
H         -7.11131       -0.74591       -3.68603
H         -6.64529       -1.16840       -2.03822
H         -5.79863        0.11869       -2.89738
H         -6.83744       -3.05992       -4.50604
H         -5.35694       -3.96810       -4.23658
H         -6.43664       -3.60561       -2.88180
H         -4.14345       -0.45950       -4.76410
H         -3.99732       -2.13100       -5.31132
H         -5.47814       -1.22804       -5.61926
C         -1.44807        3.39023        3.99795
C         -2.47560        4.09132        3.08777
C         -3.55127        4.74238        3.97801
C         -1.78006        5.19615        2.27443
H         -0.63605        2.95259        3.41897
H         -1.01051        4.09206        4.70748
H         -1.92054        2.58691        4.56268
H         -4.06253        3.99530        4.58483
H         -3.10329        5.46790        4.65693
H         -4.29296        5.26819        3.37705
H         -0.97869        4.78447        1.66487
H         -2.48760        5.68969        1.60846
H         -1.34673        5.95158        2.92970
C         -7.01837        1.81184       -0.15183
C         -6.45485        1.42949        1.22773
C         -7.24524        2.18858        2.31104
C         -6.64109       -0.08228        1.46440
H         -8.07855        1.56953       -0.22307
H         -6.90180        2.88014       -0.33322
H         -6.49793        1.28090       -0.94716
H         -8.29831        1.90825        2.28865
H         -6.86285        1.96042        3.30580
H         -7.19025        3.26600        2.15703
H         -6.16806       -0.67169        0.68012
H         -6.20134       -0.37872        2.41643
H         -7.69822       -0.34658        1.48328
C          1.17041       -3.86442        3.91650
C          2.45277       -4.31256        3.18665
C          3.44171       -4.85221        4.23781
C          2.11976       -5.44120        2.19581
H          0.39825       -3.55098        3.21554
H          0.75976       -4.67537        4.51756
H          1.37912       -3.02439        4.57855
H          2.99372       -5.66613        4.80777
H          4.34451       -5.24103        3.76740
H          3.72673       -4.07131        4.94265
H          1.41195       -5.10221        1.44124
H          3.01844       -5.77891        1.67999
H          1.68137       -6.29682        2.70912
C          7.01568       -1.24003        0.58922
C          6.33373       -1.16766        1.96821
C          7.12996       -2.04133        2.95603
C          6.35044        0.28642        2.47701
H          8.05549       -0.91933        0.65019
H          6.99793       -2.25928        0.20386
H          6.51190       -0.60085       -0.13473
H          6.68944       -2.00753        3.95229
H          7.16042       -3.07938        2.62544
H          8.15898       -1.69159        3.03856
H          5.84852        0.95679        1.78013
H          5.84238        0.36297        3.43807
H          7.37207        0.64376        2.60463
C          2.12284        4.57410        1.85654
C          2.34330        4.81490        0.34944
C          1.03586        5.29914       -0.29697
C          3.41152        5.91478        0.19296
H          1.31929        3.86235        2.03685
H          3.02753        4.18060        2.31940
H          1.85949        5.50144        2.36496
H          0.25933        4.54009       -0.21555
H          0.67457        6.21008        0.17986
H          1.18650        5.50836       -1.35573
H          3.11952        6.81617        0.73176
H          4.37143        5.58539        0.59047
H          3.54584        6.19027       -0.85270
C          5.30604        3.28921       -3.86055
C          5.46466        2.24057       -2.74324
C          5.67174        0.85963       -3.39600
C          6.70770        2.57132       -1.89677
H          6.16080        3.26942       -4.53645
H          4.40881        3.09807       -4.44775
H          5.23023        4.29676       -3.45391
H          4.80632        0.57230       -3.99205
H          6.53900        0.87031       -4.05604
H          5.84283        0.09027       -2.64348
H          6.62698        3.56097       -1.44833
H          6.82787        1.84863       -1.08992
H          7.61155        2.55192       -2.50542
H         -1.53939       -0.11899       -4.43425
H          1.33773        0.88358       -5.55092
H         -1.76530       -1.74194       -5.08071
H         -0.39189       -0.77301       -5.60720
H          2.07499       -0.04213       -4.23964
H          2.64338        1.58388       -4.59756
