75
-122.81670910
P          1.87561       -0.55717       -0.00472
C          1.72923       -1.54588       -1.50179
C          1.58146       -0.95022       -2.73335
C          1.56241       -1.72644       -3.87698
C          1.68848       -3.09786       -3.77895
C          1.82853       -3.69359       -2.54121
C          1.85105       -2.91296       -1.39934
H          1.97851       -3.36190       -0.42688
H          1.92292       -4.76421       -2.46381
H          1.66942       -3.70487       -4.66931
H          1.44277       -1.26134       -4.84162
H          1.47062        0.11944       -2.79399
C          3.21067       -1.29405        0.95240
C          4.48495       -1.27549        0.43225
C          5.52239       -1.86563        1.13141
C          5.27319       -2.48052        2.34221
C          3.99008       -2.51288        2.85098
C          2.95515       -1.92257        2.14923
H          1.94839       -1.94400        2.53434
H          3.79418       -2.99603        3.79410
H          6.08063       -2.93957        2.88902
H          6.52188       -1.84834        0.72896
H          4.65992       -0.81257       -0.52636
C          2.22082        1.16063       -0.42389
C          3.37557        1.81744       -0.06807
C          3.53711        3.16633       -0.35136
C          2.49320        3.84847       -0.97461
C          1.32388        3.20710       -1.31809
C          1.18132        1.83700       -1.04672
O         -0.00729        1.15289       -1.35616
C         -1.20284        1.82807       -1.05558
C         -1.35612        3.19546       -1.33506
C         -2.53607        3.82674       -1.00941
C         -3.57971        3.13815       -0.39290
C         -3.40511        1.79421       -0.09422
C         -2.23912        1.14785       -0.43194
P         -1.88273       -0.55779        0.02081
C         -3.22441       -1.27378        0.98271
C         -4.47923       -1.32293        0.41902
C         -5.52743       -1.89071        1.12081
C         -5.30811       -2.41444        2.37932
C         -4.04430       -2.37706        2.93405
C         -2.99869       -1.80903        2.22981
H         -2.00767       -1.77426        2.65243
H         -3.87196       -2.78788        3.91527
H         -6.12388       -2.85594        2.92821
H         -6.51183       -1.92633        0.68386
H         -4.63049       -0.92658       -0.57301
C         -1.70793       -1.57815       -1.44690
C         -1.76750       -1.01871       -2.70255
C         -1.72104       -1.83138       -3.82009
C         -1.61592       -3.20009       -3.67060
C         -1.55253       -3.75687       -2.40849
C         -1.60125       -2.94120       -1.29215
H         -1.57066       -3.36098       -0.29885
H         -1.46641       -4.82463       -2.29203
H         -1.57572       -3.83454       -4.54089
H         -1.76301       -1.39595       -4.80485
H         -1.84582        0.05136       -2.80254
Pd        -0.00080       -0.02986        1.34913
Cl        -1.56604        0.82894        2.72968
Cl         1.63397        0.73188        2.71102
H         -4.17713        1.25930        0.43001
C         -4.82904        3.84359       -0.00208
H         -5.03819        4.67631       -0.67480
H         -4.74753        4.24009        1.01071
H         -5.68626        3.16970       -0.03190
H         -2.64391        4.87539       -1.22372
S         -0.01525        4.07590       -2.09045
H          2.59255        4.89956       -1.18088
C          4.77351        3.88250        0.06058
H          4.14828        1.28754        0.45991
H          4.67775        4.26351        1.07807
H          5.63979        3.22038        0.02908
H          4.97764        4.72737       -0.59839
