105
-153.07275399
Cl        -0.87922        2.06191       -2.85089
Pd         0.08876        1.48443       -0.89740
P          1.37402        0.73499        0.87994
N          0.63904       -0.49927        1.88869
C          0.03355       -1.72646        1.65732
C         -0.10441       -2.31792        0.37726
C         -0.83356       -3.51724        0.24154
C         -0.96962       -4.12763       -1.13411
C         -1.49827       -5.57060       -1.14462
C         -2.65812       -5.73968       -0.15905
C         -2.20964       -5.39677        1.26955
C         -1.40201       -4.12688        1.36172
C         -1.21244       -3.55551        2.61274
C         -0.51130       -2.38691        2.75822
H         -0.40129       -1.94400        3.73287
H         -1.64187       -4.03576        3.47569
H         -3.08140       -5.31059        1.93092
H         -3.48172       -5.07680       -0.45232
H         -1.80323       -5.86724       -2.15812
H         -1.63164       -3.48806       -1.72958
C          0.65472       -1.83216       -0.80032
C         -0.02806       -1.22601       -1.89085
C          0.67960       -0.99920       -3.07504
C          1.99659       -1.36112       -3.19189
C          2.66511       -1.99250       -2.15016
C          4.07917       -2.45971       -2.37214
C          4.43166       -3.68330       -1.51521
C          4.11006       -3.41015       -0.04295
C          2.62866       -3.04306        0.16147
C          1.99520       -2.23468       -0.94970
H          2.04354       -3.96212        0.28622
H          4.74261       -2.58871        0.31068
H          5.48723       -3.96276       -1.64268
H          4.76477       -1.63610       -2.14471
H          2.52410       -1.17220       -4.11143
H          0.17766       -0.51265       -3.89276
N         -1.36915       -0.82846       -1.81113
P         -1.86156        0.18609       -0.45076
C         -2.82029       -0.74440        0.74367
C         -3.57042       -1.80120        0.28750
C         -4.36758       -2.50939        1.16877
C         -4.42442       -2.15214        2.50911
C         -3.66912       -1.07185        2.94614
C         -2.87637       -0.36218        2.06256
H         -2.29669        0.48104        2.39849
H         -3.70189       -0.79297        3.98550
C         -5.24229       -2.94121        3.47090
H         -4.94636       -3.34763        0.82074
H         -3.52154       -2.06979       -0.75583
C         -2.97134        1.49705       -0.97774
C         -2.91150        2.72296       -0.35768
C         -3.76689        3.73417       -0.75518
C         -4.69505        3.51829       -1.76491
C         -4.74154        2.27144       -2.37424
C         -3.88444        1.26109       -1.97670
H         -3.92551        0.28929       -2.44177
H         -5.45070        2.09772       -3.16544
C         -5.59343        4.61684       -2.21603
H         -3.71455        4.70124       -0.28491
H         -2.19202        2.88781        0.42888
H         -1.72713       -0.36098       -2.63418
H          0.83304       -0.24871        2.85066
C          1.31709        2.24920        1.84391
C          2.42704        3.04524        1.99702
C          2.33219        4.22438        2.71291
C          1.12290        4.61819        3.27051
C          0.01442        3.79782        3.10902
C          0.11255        2.61837        2.39323
H         -0.74641        1.98282        2.25416
H         -0.92616        4.08890        3.54459
C          1.02613        5.87854        4.05778
H          3.19886        4.85068        2.83850
H          3.36024        2.74780        1.54745
C          3.10754        0.36177        0.62311
C          3.75260        0.72796       -0.53379
C          5.10579        0.48505       -0.67473
C          5.82467       -0.12042        0.34662
C          5.16382       -0.45260        1.52176
C          3.80737       -0.21452        1.65673
H          3.29035       -0.46918        2.56834
H          5.71627       -0.90251        2.32889
C          7.28449       -0.37183        0.19752
H          5.61509        0.77471       -1.57802
H          3.20199        1.23318       -1.30911
Cl         1.72082        2.98398       -1.28543
H         -1.61208       -6.22070        1.67750
H         -0.68731       -6.25672       -0.86964
H         -3.06759       -6.75864       -0.20819
H          0.00434       -4.08486       -1.63759
H          4.38434       -4.27378        0.57898
H          2.50371       -2.49464        1.10283
H          4.22704       -2.68121       -3.43680
H          3.85122       -4.54833       -1.86006
H         -4.63460       -3.70367        3.96025
H         -5.66595       -2.29984        4.24498
H         -6.06959       -3.44301        2.96713
H         -5.82231        5.29999       -1.39690
H         -5.12655        5.19396       -3.01529
H         -6.53864        4.22340       -2.59261
H          1.26712        5.69983        5.10655
H          1.71563        6.63354        3.67749
H          0.01965        6.29661        4.00994
H          7.53735       -0.61370       -0.83582
H          7.86080        0.50727        0.48889
H          7.60644       -1.20759        0.82042
