111
-148.55836301
P         -2.62032       -2.18618       -0.47348
P          0.02994       -0.45346       -0.37024
C         -1.56712       -2.06543       -1.94419
C         -0.39915       -1.33679       -1.88308
C         -3.41121       -3.85287       -0.32919
C         -2.75674       -4.68157        0.75453
C         -1.92901       -2.68829       -3.12170
H         -2.85472       -3.23746       -3.17254
C         -1.10920       -2.59103       -4.23279
H         -1.39023       -3.07845       -5.15208
C          0.06689       -1.86916       -4.16555
H          0.70519       -1.79346       -5.03044
C          0.42072       -1.23602       -2.98768
H          1.33251       -0.66353       -2.92142
Pd        -1.34039       -1.36781        1.25986
Cl        -2.96733       -1.98837        2.67075
Cl        -0.01482       -0.39784        2.78824
C         -4.88895       -3.50411       -0.06960
C         -4.12216       -1.11057       -0.56764
H         -1.69369       -4.83209        0.55161
H         -2.83765       -4.18653        1.72326
H         -3.22775       -5.66307        0.84608
H         -5.05746       -3.47280        1.01576
H         -5.54445       -4.30340       -0.44773
H         -4.17957       -0.58426        0.39438
C         -5.27078       -2.12962       -0.69084
C         -4.02232       -0.12919       -1.71626
H         -3.30054       -4.34059       -1.30572
H         -5.51212       -2.26349       -1.75431
H         -6.18679       -1.73102       -0.22883
H         -3.91739       -0.65627       -2.66637
H         -4.91256        0.50056       -1.78285
H         -3.15245        0.52302       -1.60846
C         -1.04337        3.96346       -0.72583
C         -0.10763        3.38330       -1.61958
C          0.19558        2.03976       -1.47118
C         -0.44156        1.26879       -0.53423
C         -1.42508        1.80201        0.25738
C         -1.77930        3.13633        0.16003
O         -1.21089        5.37327       -0.68690
C          0.60609        4.19255       -2.71352
H          0.95467        1.57813       -2.07861
H         -1.90421        1.16848        0.98120
C         -2.91576        3.67000        1.04589
C          4.46826       -0.73469        0.60861
C          3.79891       -1.86534        0.07352
C          2.45261       -1.74888       -0.23274
C          1.76725       -0.59214        0.03224
C          2.38408        0.46391        0.64965
C          3.72545        0.41205        0.98830
O          5.88320       -0.73834        0.73271
C          4.51926       -3.19412       -0.20383
H          1.91893       -2.56100       -0.69535
H          1.79588        1.33929        0.86534
C          4.34932        1.59844        1.73949
C          0.93618        3.29346       -3.92692
C         -0.28603        5.33459       -3.23315
C          1.91855        4.75882       -2.15056
C         -3.65311        4.83583        0.36274
C         -3.96695        2.56721        1.30941
C         -2.33498        4.12496        2.39329
C         -0.33733        6.03285        0.22127
H          1.69564        2.55142       -3.68524
H          0.04542        2.77180       -4.27616
H          1.32245        3.88755       -4.75486
H          0.19534        5.86553       -4.05404
H         -1.23758        4.94456       -3.59291
H         -0.49744        6.06040       -2.45202
H          2.45252        5.33325       -2.90709
H          1.73412        5.41159       -1.30060
H          2.57177        3.95398       -1.81451
H         -4.49830        5.17078        0.96351
H         -2.99624        5.68934        0.21525
H         -4.02985        4.53179       -0.61330
H         -4.83186        2.97478        1.83213
H         -4.31684        2.13428        0.37296
H         -3.56799        1.76692        1.93077
H         -3.11960        4.49782        3.05106
H         -1.83730        3.29642        2.89682
H         -1.60310        4.91800        2.25944
H          0.27714        6.75267       -0.31921
H         -0.92272        6.57464        0.96397
H          0.30674        5.30955        0.72315
C          6.56673       -0.23329       -0.40744
C          3.53851       -4.38268       -0.08449
C          5.09279       -3.17331       -1.62873
C          5.64479       -3.43796        0.81804
C          3.29544        2.28621        2.63813
C          5.48969        1.13207        2.66232
C          4.87283        2.62578        0.72459
H          3.01697       -4.35993        0.87205
H          2.79622       -4.37468       -0.88126
H          4.07040       -5.33137       -0.15306
H          5.60028       -4.10969       -1.85918
H          4.29885       -3.03002       -2.36142
H          5.80813       -2.36403       -1.75378
H          6.42375       -2.68380        0.73791
H          5.25327       -3.40703        1.83427
H          6.11115       -4.41057        0.66315
H          3.76099        3.03745        3.27562
H          2.53308        2.79496        2.04990
H          2.80225        1.55872        3.28235
H          5.88868        1.96301        3.24352
H          5.13354        0.37193        3.35682
H          6.31126        0.70433        2.09325
H          5.63201        2.19115        0.07875
H          5.31233        3.48523        1.23021
H          4.06376        2.98539        0.08940
H          7.16466        0.63212       -0.12234
H          7.23894       -0.99713       -0.79801
H          5.85467        0.05522       -1.18168
