58
-89.86458271
P          1.63396        0.25786        0.82372
C          2.76472        1.63456        0.59968
C          4.08929        1.40409        0.30708
C          4.94910        2.47250        0.12739
C          4.47374        3.76414        0.24169
C          3.14314        3.98996        0.53480
C          2.28547        2.91919        0.71462
H          1.24157        3.07874        0.93550
H          4.44359        0.39020        0.21469
C          2.40248       -1.27940        0.28637
C          2.74409       -2.27093        1.17877
C          3.30031       -3.44955        0.71571
C          3.51524       -3.62732       -0.63673
C          3.18013       -2.62784       -1.52795
C          2.62358       -1.45211       -1.06104
H          2.35366       -0.65948       -1.74035
H          2.57853       -2.12554        2.23330
C          1.25082        0.23007        2.62366
C          0.12893       -0.71123        3.02744
C         -1.25109       -0.18070        2.68826
P         -1.65564       -0.17242        0.89595
C         -3.18060        0.77365        0.73397
C         -4.30706        0.33998        1.39752
C         -5.48393        1.06148        1.30479
C         -5.52351        2.21975        0.55460
C         -4.38906        2.66004       -0.09737
C         -3.21443        1.93632       -0.00241
H         -2.32426        2.27246       -0.50865
H         -4.26097       -0.55797        1.99342
C         -1.83839       -1.86532        0.30934
C         -0.70693       -2.64068        0.20093
C         -0.79833       -3.94079       -0.25967
C         -2.02855       -4.45739       -0.61372
C         -3.16173       -3.67405       -0.51564
C         -3.06416       -2.37348       -0.05557
H         -3.93878       -1.74806        0.00237
H          0.25188       -2.21280        0.43662
Pd        -0.10474        0.49587       -0.70885
Cl         1.40274        1.44140       -2.08019
Cl        -1.77139        0.36464       -2.20413
H         -2.03255       -0.77492        3.16808
H         -1.36842        0.84359        3.04739
H          0.27516       -1.69366        2.56226
H          0.18586       -0.89710        4.11142
H          2.18864       -0.02416        3.12354
H          1.01279        1.25417        2.91745
H          5.98647        2.29628       -0.10512
H          2.77132        4.99785        0.61922
H          3.56515       -4.22904        1.41115
H          3.34872       -2.76300       -2.58363
H         -6.36720        0.72008        1.81920
H         -4.41807        3.56497       -0.68184
H          0.09090       -4.54262       -0.35107
H         -4.12075       -4.07306       -0.80270
H          5.14194        4.59767        0.09870
H          3.94774       -4.54652       -0.99691
H         -6.43998        2.78211        0.47982
H         -2.10334       -5.46989       -0.97557
