171
-217.84641939
P         -1.56021        0.36233       -0.41656
P          1.62653       -0.37178       -0.20966
C         -0.78958        1.34193       -1.70816
C          1.01534       -1.32930       -1.60550
C          0.05637        0.74139       -2.63278
C          0.70131        1.55120       -3.58736
C          0.44848        2.91295       -3.60053
C         -0.41446        3.48499       -2.68961
C         -1.02686        2.69400       -1.73721
C          1.24236       -2.68442       -1.60432
C          0.72251       -3.47982       -2.60601
C         -0.04216       -2.90934       -3.60099
C         -0.28330       -1.54584       -3.62294
C          0.27181       -0.73095       -2.61708
Cl         1.41063        0.12714        3.00097
Cl        -1.79156       -0.48538        2.75153
C         -1.12912       -0.97450       -4.70706
C          1.62951        0.96602       -4.59362
H         -0.60854        4.54471       -2.71867
H         -1.69614        3.13180       -1.01427
H          1.82978       -3.12560       -0.81602
H          0.90754       -4.54156       -2.60396
H          0.93700        3.52747       -4.33782
H         -0.46624       -3.52668       -4.37497
C         -3.72755       -3.30415       -1.92606
C         -2.76814       -3.45628       -0.93301
C         -2.10702       -2.31788       -0.49071
C         -2.38290       -1.09516       -1.04905
C         -3.31721       -0.96347       -2.04665
C         -4.01826       -2.07375       -2.50247
H         -4.28108       -4.16805       -2.24447
H         -1.37893       -2.37256        0.29967
H         -3.50276        0.01639       -2.45302
C         -4.52711        2.78550        2.02374
C         -3.17307        3.08453        2.12921
C         -2.28299        2.36055        1.34673
C         -2.73201        1.36398        0.51615
C         -4.07098        1.07518        0.43436
C         -4.99959        1.78565        1.18144
H         -5.22893        3.33639        2.61954
H         -1.22592        2.55749        1.40654
H         -4.39670        0.27387       -0.20507
C          4.45525       -2.81051        2.36753
C          3.11645       -3.18013        2.31148
C          2.27333       -2.44117        1.49241
C          2.75043       -1.36578        0.78527
C          4.07246       -1.00542        0.86543
C          4.95691       -1.72844        1.65501
H          5.12973       -3.36920        2.98860
H          1.22873       -2.69298        1.42025
H          4.40686       -0.14428        0.31552
C          3.74704        3.49652       -1.20452
C          2.73155        3.51325       -0.25614
C          2.06621        2.32137       -0.00259
C          2.42336        1.16888       -0.65754
C          3.43737        1.16592       -1.58346
C          4.12323        2.33923       -1.87555
H          4.27429        4.40587       -1.42265
H          1.26876        2.28472        0.71879
H          3.69456        0.23705       -2.06356
Pd        -0.09290       -0.07130        1.34520
C         -2.18919       -5.84589       -1.44989
C         -2.49964       -4.83944       -0.32579
C         -3.74508       -5.29644        0.45334
C         -1.29752       -4.80632        0.63755
H         -1.95132       -6.82709       -1.03944
H         -3.03638       -5.96577       -2.12375
H         -1.33677       -5.51184       -2.04026
H         -3.58438       -6.27341        0.90884
H         -3.98317       -4.58806        1.24668
H         -4.61325       -5.36950       -0.20095
H         -1.08501       -5.80169        1.02727
H         -0.40393       -4.44962        0.12645
H         -1.49257       -4.15546        1.48949
C         -6.48827       -2.22658       -2.84871
C         -5.14083       -1.95987       -3.54356
C         -4.92448       -2.99378       -4.66550
C         -5.18421       -0.55657       -4.18005
H         -7.31523       -2.14386       -3.55372
H         -6.51493       -3.22582       -2.41504
H         -6.65594       -1.50997       -2.04489
H         -5.69248       -2.89997       -5.43313
H         -3.95519       -2.85285       -5.14194
H         -4.96453       -4.01287       -4.28354
H         -5.40657        0.20759       -3.43581
H         -4.23400       -0.31091       -4.65328
H         -5.95917       -0.50263       -4.94454
C         -3.75338        4.80368        3.91769
C         -2.62768        4.13975        3.10198
C         -1.89073        5.23149        2.30709
C         -1.65001        3.46117        4.08121
H         -4.29552        4.06659        4.50976
H         -3.34630        5.54425        4.60605
H         -4.46187        5.31446        3.26585
H         -2.56017        5.70609        1.58992
H         -1.50104        6.00356        2.97029
H         -1.05201        4.81250        1.75520
H         -2.15012        2.66626        4.63392
H         -0.80499        3.01740        3.55650
H         -1.25580        4.17854        4.80056
C         -6.68098       -0.04836        1.48047
C         -6.48642        1.42177        1.06326
C         -6.93915        1.60851       -0.39699
C         -7.36539        2.30808        1.96600
H         -7.73160       -0.33335        1.42852
H         -6.12106       -0.72211        0.83278
H         -6.33725       -0.20635        2.50246
H         -7.99576        1.36756       -0.51227
H         -6.79028        2.63946       -0.71741
H         -6.37559        0.96487       -1.07118
H         -7.26790        3.35988        1.69766
H         -8.41677        2.03847        1.86643
H         -7.09343        2.19120        3.01486
C          2.18709       -5.49406        2.12452
C          2.54948       -4.36559        3.10489
C          1.28949       -3.91618        3.87213
C          3.56783       -4.90516        4.12782
H          3.07101       -5.83560        1.58620
H          1.75889       -6.34749        2.64993
H          1.46180       -5.15297        1.38777
H          0.89867       -4.72545        4.48850
H          1.51742       -3.07356        4.52450
H          0.49536       -3.60676        3.19449
H          4.45321       -5.30233        3.63203
H          3.87943       -4.12157        4.81829
H          3.13336       -5.71315        4.71636
C          6.74850       -0.97035        3.23349
C          6.43964       -1.34840        1.77364
C          6.79170       -0.14818        0.87193
C          7.31024       -2.54555        1.34938
H          7.79144       -0.67567        3.34849
H          6.12392       -0.13686        3.55441
H          6.56124       -1.80636        3.90638
H          6.58766       -0.37270       -0.17485
H          6.22095        0.73643        1.15405
H          7.84908        0.10240        0.95588
H          7.14173       -3.40760        1.99362
H          7.08266       -2.84268        0.32578
H          8.36962       -2.29459        1.40035
C          3.40935        5.87825        0.38865
C          2.31413        4.79697        0.47605
C          2.06026        4.49702        1.96776
C          1.02828        5.33656       -0.16907
H          4.35907        5.50164        0.76828
H          3.55573        6.21345       -0.63766
H          3.13690        6.75295        0.97918
H          1.22479        3.81289        2.10494
H          2.94102        4.04709        2.42530
H          1.82582        5.41049        2.51404
H          0.68058        6.23604        0.33865
H          1.19848        5.58325       -1.21677
H          0.23425        4.59256       -0.12712
C          5.03058        3.42942       -3.95117
C          5.30256        2.37885       -2.85799
C          5.52519        1.01237       -3.53509
C          6.58293        2.75505       -2.08955
H          4.93935        4.42903       -3.52831
H          5.84046        3.45109       -4.68018
H          4.10602        3.20712       -4.48195
H          6.35478        1.06094       -4.24030
H          5.76407        0.24410       -2.79997
H          4.64057        0.69777       -4.08737
H          6.78523        2.03152       -1.30040
H          7.44542        2.77840       -2.75540
H          6.49153        3.73688       -1.62634
H         -0.58351       -0.94038       -5.65101
H          2.46870        1.63457       -4.78570
H         -1.45741        0.03784       -4.46798
H         -2.02206       -1.58111       -4.85949
H          1.11823        0.79425       -5.54165
H          2.03751        0.01388       -4.25153
