59
-75.81286026
Cl         1.61151        0.74449        2.27987
P          1.57605       -0.07096       -0.87824
P         -1.59890       -0.09121       -0.81166
C          0.58124        0.31057       -2.38167
H          0.32410        1.37289       -2.37968
H          1.19042        0.11675       -3.27032
C         -0.65314       -0.54051       -2.33142
H         -0.39189       -1.60088       -2.27845
H         -1.29779       -0.39894       -3.20505
C          2.48307       -1.66154       -1.20313
H          2.27252       -1.87873       -2.25909
C          3.03422        1.05792       -0.67711
H          3.16519        1.18893        0.40393
C         -2.93704       -1.32460       -0.45897
H         -3.30395       -1.09257        0.54858
C         -2.72291        1.32240       -1.25286
H         -2.23621        1.87403       -2.06643
C          3.96814       -1.28746       -1.04719
H          4.31414       -1.57046       -0.04598
H          4.58538       -1.87470       -1.74369
C          4.19779        0.23288       -1.25278
H          4.28822        0.45008       -2.32608
H          5.15160        0.55207       -0.80549
C         -3.98944       -0.92571       -1.50634
H         -3.75180       -1.44419       -2.44675
H         -4.98408       -1.29611       -1.21280
C         -4.01193        0.61443       -1.74419
H         -4.87241        1.04947       -1.21710
H         -4.18890        0.83431       -2.80748
C          2.00867       -2.82528       -0.33467
H          2.49435       -3.74928       -0.67822
H          0.93827       -2.98086       -0.52154
C          2.84714        2.41576       -1.34276
H          3.80637        2.95201       -1.33835
H          2.60837        2.26281       -2.40315
C         -2.48910       -2.78116       -0.52162
H         -3.37655       -3.42554       -0.59028
H         -1.94129       -2.94959       -1.45679
C         -2.98417        2.25233       -0.06907
H         -3.84886        2.88910       -0.30353
H         -3.29746        1.64510        0.79045
C          2.25302       -2.65191        1.15880
H          1.87116       -1.69794        1.52046
H          3.31552       -2.68097        1.40407
H          1.77118       -3.43849        1.74429
C          1.77767        3.26076       -0.67144
H          0.81172        2.75741       -0.69275
H          1.65371        4.23163       -1.15649
H          2.01902        3.44340        0.37744
C         -1.64823       -3.19084        0.67730
H         -0.77236       -2.55156        0.78391
H         -1.29843       -4.22300        0.60307
H         -2.21578       -3.10149        1.60555
C         -1.80140        3.12954        0.30746
H         -1.46737        3.72856       -0.54175
H         -2.04656        3.81858        1.11893
H         -0.95326        2.53423        0.64220
Cl        -1.62672        0.10551        2.36904
Pd         0.01829        0.09693        0.84508
