171
-217.84618976
P         -1.60042        0.40706       -0.42076
P          1.60139       -0.35596       -0.26545
C         -0.83146        1.41461       -1.69449
C          0.98388       -1.26307       -1.68714
C          0.02418        0.84641       -2.63150
C          0.68311        1.69017       -3.54661
C          0.43280        3.05182       -3.51437
C         -0.44166        3.59211       -2.59580
C         -1.06550        2.76811       -1.67995
C          1.22451       -2.61411       -1.74328
C          0.71808       -3.36710       -2.78446
C         -0.04957       -2.75960       -3.75533
C         -0.30606       -1.39920       -3.71578
C          0.23871       -0.62571       -2.67259
Cl         1.43492        0.39690        2.92515
Cl        -1.71627       -0.29289        2.82022
C         -1.14139       -0.78182       -4.78254
C          1.63272        1.14652       -4.55624
H         -0.63438        4.65246       -2.58881
H         -1.74164        3.18384       -0.95083
H          1.81091       -3.08203       -0.96882
H          0.91856       -4.42479       -2.83480
H          0.93339        3.69140       -4.22170
H         -0.46079       -3.34487       -4.56051
C         -3.67985       -3.35687       -1.81544
C         -2.74846       -3.44584       -0.78776
C         -2.09496       -2.28273       -0.40520
C         -2.37175       -1.09017       -1.02575
C         -3.29573       -1.01647       -2.03844
C         -3.97275       -2.15732       -2.45391
H         -4.21037       -4.23929       -2.11962
H         -1.37620       -2.30316        0.39595
H         -3.49407       -0.05743       -2.48614
C         -4.60805        2.74255        2.04544
C         -3.26621        3.10248        2.11067
C         -2.36549        2.40106        1.32025
C         -2.79135        1.36787        0.52372
C         -4.11655        1.01514        0.48454
C         -5.05635        1.70066        1.24111
H         -5.31934        3.28049        2.64178
H         -1.31728        2.64719        1.34157
H         -4.42028        0.18631       -0.13081
C          4.31284       -2.96521        2.27082
C          2.94497       -3.21118        2.28884
C          2.13057       -2.42049        1.48789
C          2.66882       -1.41072        0.72890
C          4.01987       -1.17118        0.73823
C          4.87408       -1.94886        1.50669
H          4.95104       -3.58230        2.87475
H          1.06599       -2.57578        1.46346
H          4.41310       -0.36158        0.14895
C          3.89628        3.42768       -1.18899
C          2.87148        3.47399       -0.25126
C          2.15931        2.30689       -0.01359
C          2.46730        1.15192       -0.68735
C          3.48089        1.12088       -1.61303
C          4.22181        2.26631       -1.88023
H          4.47425        4.31259       -1.37735
H          1.36967        2.29229        0.71797
H          3.69632        0.19065       -2.11075
Pd        -0.08171       -0.01948        1.30580
C         -2.64160       -4.55837        1.45871
C         -2.43555       -4.75833       -0.05555
C         -0.97519       -5.15328       -0.33394
C         -3.35169       -5.90575       -0.52197
H         -2.44469       -5.48081        2.00465
H         -1.97813       -3.79096        1.85468
H         -3.66613       -4.25287        1.66985
H         -0.70336       -6.05973        0.20664
H         -0.82560       -5.33721       -1.39719
H         -0.29017       -4.36204       -0.03325
H         -3.21296       -6.11331       -1.58280
H         -3.12999       -6.82292        0.02364
H         -4.40041       -5.66365       -0.35043
C         -4.75598       -3.13785       -4.63361
C         -5.06898       -2.11207       -3.52781
C         -5.17628       -0.71642       -4.17325
C         -6.42092       -2.45195       -2.87388
H         -3.78304       -2.94011       -5.08166
H         -4.74274       -4.15424       -4.24242
H         -5.50495       -3.09797       -5.42437
H         -5.94066       -0.70761       -4.95014
H         -5.45027        0.03795       -3.43606
H         -4.23372       -0.42242       -4.63363
H         -6.40820       -3.45078       -2.43892
H         -6.65224       -1.74444       -2.07775
H         -7.22878       -2.41491       -3.60447
C         -2.30987        5.41373        2.12670
C         -2.75273        4.23556        3.01056
C         -1.55551        3.73055        3.84160
C         -3.84094        4.72696        3.98455
H         -3.14686        5.79190        1.54002
H         -1.92119        6.23305        2.73119
H         -1.52930        5.10774        1.43240
H         -0.71344        3.45723        3.20763
H         -1.20951        4.49786        4.53375
H         -1.83437        2.85155        4.42225
H         -3.44594        5.49453        4.64999
H         -4.68370        5.16247        3.44834
H         -4.20903        3.90849        4.60299
C         -6.64164       -0.19808        1.63909
C         -6.52714        1.26591        1.17357
C         -7.02571        1.38632       -0.27884
C         -7.42288        2.13838        2.07325
H         -7.67866       -0.53287        1.62394
H         -6.06722       -0.86456        0.99653
H         -6.26479       -0.30855        2.65565
H         -6.45270        0.74621       -0.94858
H         -8.07342        1.09661       -0.35731
H         -6.93085        2.41202       -0.63466
H         -7.38077        3.18489        1.77188
H         -8.46290        1.81849        2.00971
H         -7.11931        2.06579        3.11743
C          2.87940       -5.68392        2.68302
C          2.37505       -4.31993        3.18518
C          0.83377       -4.32684        3.16951
C          2.83666       -4.09278        4.63728
H          2.48496       -6.49541        3.29435
H          2.56652       -5.85389        1.65283
H          3.96712       -5.73768        2.71543
H          0.44219       -5.09198        3.83958
H          0.43422       -3.36591        3.49368
H          0.45446       -4.54133        2.17198
H          2.52007       -3.11148        4.99036
H          2.41257       -4.84415        5.30313
H          3.92086       -4.14704        4.72510
C          7.16518       -2.60627        2.40111
C          6.37803       -1.64150        1.49414
C          6.60271       -0.20253        1.99604
C          6.91177       -1.77557        0.05561
H          6.83370       -2.52949        3.43647
H          7.04392       -3.63879        2.07404
H          8.23028       -2.37594        2.37826
H          6.10636        0.52361        1.35310
H          6.20659       -0.08088        3.00395
H          7.66444        0.04242        2.01749
H          6.73859       -2.78114       -0.32719
H          6.42002       -1.07303       -0.61608
H          7.98297       -1.57859        0.01665
C          3.49509        5.89320        0.24119
C          2.50801        4.74572        0.52751
C          2.53483        4.44697        2.03941
C          1.09659        5.19531        0.11555
H          3.47827        6.17297       -0.81196
H          3.23552        6.77948        0.82012
H          4.51292        5.60931        0.50820
H          1.80181        3.68832        2.30994
H          3.51696        4.08503        2.34255
H          2.31103        5.34299        2.61801
H          0.78811        6.07970        0.67269
H          1.06600        5.43670       -0.94641
H          0.36853        4.40673        0.29988
C          5.25795        3.38253       -3.88327
C          5.41918        2.25926       -2.84134
C          5.54277        0.91641       -3.58813
C          6.70806        2.48620       -2.03028
H          6.07994        3.36992       -4.59884
H          4.32764        3.26635       -4.43782
H          5.24570        4.36468       -3.41272
H          6.37985        0.93790       -4.28580
H          5.71677        0.09447       -2.89424
H          4.64138        0.69965       -4.16003
H          6.83337        1.70532       -1.28025
H          7.58445        2.47655       -2.67807
H          6.68394        3.44477       -1.51295
H         -1.99342       -1.41751       -5.02455
H          2.50497        1.79302       -4.65527
H         -0.56316       -0.63773       -5.69614
H         -1.53217        0.18818       -4.47216
H          1.15974        1.07306       -5.53638
H          1.98803        0.15392       -4.27625
