105
-153.06919809
Cl        -0.98374        2.13503       -2.84376
Pd         0.01267        1.55937       -0.90808
P          1.40094        0.75553        0.80232
N          0.56419       -0.41366        1.81265
C          0.01692       -1.67151        1.60455
C         -0.09084       -2.29214        0.33613
C         -0.77393       -3.51967        0.21806
C         -0.89423       -4.14944       -1.15031
C         -1.37481       -5.60926       -1.14269
C         -2.52305       -5.80655       -0.14861
C         -2.07831       -5.43368        1.27364
C         -1.32032       -4.13254        1.34728
C         -1.15888       -3.53176        2.58853
C         -0.50797       -2.33220        2.71503
H         -0.42204       -1.86703        3.68169
H         -1.57262       -4.01311        3.45850
H         -2.94806       -5.37536        1.94068
H         -3.36990       -5.17440       -0.44367
H         -1.67527       -5.92658       -2.15123
H         -1.57950       -3.53874       -1.74988
C          0.63829       -1.78663       -0.85145
C         -0.07068       -1.16247       -1.91403
C          0.61281       -0.90076       -3.10507
C          1.93159       -1.24447       -3.25339
C          2.62492       -1.89459       -2.23972
C          4.04330       -2.33105       -2.49413
C          4.43347       -3.56657       -1.67080
C          4.12177       -3.33886       -0.18861
C          2.63485       -3.01297        0.04024
C          1.97779       -2.17636       -1.03555
H          2.07104       -3.94892        0.13296
H          4.73695       -2.51098        0.17949
H          5.49395       -3.81741       -1.81580
H          4.71671       -1.49900       -2.26008
H          2.44162       -1.02426       -4.17579
H          0.09226       -0.39753       -3.90075
N         -1.41346       -0.78022       -1.79926
P         -1.89104        0.20859       -0.41416
C         -2.82989       -0.74863        0.77436
C         -3.52908       -1.84039        0.32008
C         -4.30916       -2.57071        1.19844
C         -4.40040       -2.20039        2.53331
C         -3.69693       -1.08452        2.96809
C         -2.92127       -0.35272        2.08724
H         -2.38339        0.51999        2.41907
H         -3.75695       -0.79475        4.00322
C         -5.19889       -3.01315        3.49165
H         -4.84701       -3.43674        0.85278
H         -3.45291       -2.11868       -0.71899
C         -3.02500        1.51255       -0.90654
C         -2.97358        2.72732       -0.26416
C         -3.84840        3.73353       -0.63115
C         -4.78736        3.52319       -1.63207
C         -4.82529        2.28710       -2.26361
C         -3.94903        1.28173       -1.89655
H         -3.98427        0.31769       -2.37788
H         -5.54325        2.11773       -3.04778
C         -5.70725        4.61729       -2.04937
H         -3.80365        4.69225       -0.14333
H         -2.24667        2.88665        0.51693
H         -1.79221       -0.30222       -2.60680
H          0.71885       -0.13327        2.77335
C          1.35755        2.29554        1.72994
C          2.43721        3.14588        1.74762
C          2.35577        4.34349        2.43390
C          1.19295        4.69608        3.10629
C          0.10809        3.83046        3.06365
C          0.19282        2.63232        2.37796
H         -0.64714        1.95819        2.33744
H         -0.80432        4.10204        3.56654
C          1.09558        6.00001        3.81887
H          3.19549        5.01719        2.44504
H          3.33425        2.87565        1.21472
C          3.13669        0.29350        0.72517
C          3.92613        0.60230       -0.35643
C          5.27441        0.30096       -0.33849
C          5.84908       -0.29881        0.77330
C          5.04002       -0.59890        1.86108
C          3.68940       -0.29806        1.83694
H          3.06146       -0.51933        2.68513
H          5.47258       -1.07226        2.72585
C          7.29492       -0.65438        0.77765
H          5.89281        0.53908       -1.18709
H          3.48935        1.10484       -1.20152
Cl         1.92014        2.57256       -1.54517
H         -1.44605       -6.22982        1.68444
H         -0.53998       -6.26514       -0.86537
H         -2.89864       -6.83901       -0.18475
H          0.07543       -4.07960       -1.65889
H          4.42381       -4.21083        0.40833
H          2.50424       -2.50476        1.00311
H          4.17740       -2.52633       -3.56572
H          3.87033       -4.43658       -2.03141
H         -4.57817       -3.77815        3.96027
H         -5.61907       -2.38953        4.28194
H         -6.02760       -3.51381        2.98903
H         -5.95494        5.26570       -1.20777
H         -5.24913        5.23236       -2.82505
H         -6.64188        4.21737       -2.44507
H          2.06393        6.30262        4.21988
H          0.75045        6.78465        3.14424
H          0.39563        5.94176        4.65359
H          7.68636       -0.70431        1.79463
H          7.45623       -1.62523        0.30687
H          7.88271        0.08568        0.23281
