58
-89.86803379
P          1.56082        0.00888        0.77811
C          2.93003        1.16916        0.70481
C          4.20189        0.68985        0.48794
C          5.26793        1.56928        0.42562
C          5.05079        2.92407        0.58102
C          3.77286        3.40044        0.79785
C          2.70898        2.51845        0.86044
H          1.70567        2.88036        1.01721
H          4.35416       -0.37031        0.36299
C          2.01987       -1.55883        0.02598
C          2.34606       -2.65133        0.79762
C          2.68997       -3.84438        0.18774
C          2.71151       -3.93398       -1.19018
C          2.39845       -2.83198       -1.96051
C          2.05623       -1.64185       -1.34687
H          1.82569       -0.76503       -1.92965
H          2.33423       -2.57084        1.87219
C          1.07201       -0.19459        2.54418
C          0.02008        0.82313        2.96401
C         -1.40776        0.39681        2.66055
P         -1.73718        0.01354        0.88554
C         -3.44078        0.44210        0.51272
C         -4.32439       -0.52890        0.09941
C         -5.63387       -0.18988       -0.18937
C         -6.04844        1.12123       -0.06242
C         -5.15829        2.09232        0.35199
C         -3.84922        1.74973        0.64105
H         -3.13924        2.49926        0.95389
H         -3.98594       -1.54754        0.00147
C         -1.40509       -1.69847        0.43452
C         -1.40688       -2.00808       -0.90691
C         -1.12906       -3.29793       -1.32036
C         -0.85285       -4.27258       -0.38296
C         -0.86004       -3.96075        0.96207
C         -1.13892       -2.66991        1.37173
H         -1.15946       -2.42708        2.42055
H         -1.61784       -1.23022       -1.62451
Pd        -0.12958        0.94669       -0.51433
Cl         1.44524        1.48844       -2.02266
Cl        -1.84782        1.61483       -1.79409
H         -1.68399       -0.48569        3.23934
H         -2.11439        1.18058        2.94461
H          0.11143        1.03153        4.04154
H          0.23194        1.78057        2.46888
H          0.71363       -1.21142        2.70456
H          1.99397       -0.08864        3.12188
H          6.26442        1.19710        0.25312
H          3.60272        4.45821        0.91381
H          2.93831       -4.70382        0.78855
H          2.42089       -2.89743       -3.03584
H         -6.32741       -0.94750       -0.51543
H         -5.48015        3.11644        0.44584
H         -1.12094       -3.53777       -2.37082
H         -0.64529       -4.72272        1.69327
H          5.87967        3.61115        0.52998
H          2.97619       -4.86468       -1.66495
H         -7.06773        1.38763       -0.29002
H         -0.62882       -5.27754       -0.70156
