58
-89.86635574
P          1.49771       -0.04015        0.74038
C          2.92042        1.06153        0.70964
C          2.75821        2.42792        0.74182
C          3.86809        3.25295        0.72108
C          5.13407        2.70385        0.67168
C          5.29313        1.33263        0.64207
C          4.18091        0.51031        0.66163
H          4.28889       -0.56232        0.63533
H          1.76611        2.84847        0.76586
C          1.95225       -1.62890        0.03770
C          2.17642       -2.73182        0.83006
C          2.53597       -3.93290        0.24565
C          2.67467       -4.01876       -1.12592
C          2.46321       -2.90574       -1.91526
C          2.10534       -1.70683       -1.32745
H          1.95322       -0.81923       -1.92119
H          2.07065       -2.65257        1.89961
C          0.94596       -0.15203        2.49108
C          0.00093        0.99327        2.82164
C         -1.45163        0.72554        2.45554
P         -1.77185        0.17837        0.72067
C         -3.55072        0.35337        0.47613
C         -4.37603       -0.45791        1.22292
C         -5.74992       -0.35723        1.09010
C         -6.29037        0.55768        0.20858
C         -5.46098        1.36759       -0.54089
C         -4.09042        1.26114       -0.40471
H         -3.43332        1.87348       -0.99677
H         -3.94138       -1.17180        1.90487
C         -1.42493       -1.57109        0.46151
C         -1.29608       -2.01448       -0.83516
C         -1.03835       -3.34968       -1.08768
C         -0.92139       -4.23651       -0.03684
C         -1.07095       -3.79241        1.26156
C         -1.32972       -2.45713        1.50984
H         -1.47655       -2.11382        2.52016
H         -1.39830       -1.31200       -1.64757
Pd        -0.04769        1.00376       -0.64989
Cl         1.58333        1.50370       -2.11486
Cl        -1.54333        2.18470       -1.82418
H         -1.87575       -0.04243        3.10432
H         -2.05991        1.62085        2.60706
H          0.06351        1.23382        3.89468
H          0.34930        1.89932        2.30720
H          0.47759       -1.11862        2.67217
H          1.85519       -0.12015        3.09696
H          3.74346        4.32322        0.73844
H          6.28053        0.90297        0.60128
H          2.70486       -4.80128        0.86100
H          2.57801       -2.96887       -2.98480
H         -6.39573       -0.99266        1.67355
H         -5.88024        2.07883       -1.23354
H         -0.92449       -3.69426       -2.10229
H         -0.98792       -4.48632        2.08191
H          5.99911        3.34657        0.65336
H          2.95191       -4.95568       -1.58083
H         -7.36009        0.63767        0.10344
H         -0.71442       -5.27639       -0.23034
