171
-217.84806127
P         -1.59753        0.36259       -0.33955
P          1.59422       -0.35270       -0.17370
C         -0.80813        1.40017       -1.57482
C          0.96387       -1.27549       -1.57899
C          0.03518        0.84315       -2.52972
C          0.69179        1.70057       -3.43381
C          0.45897        3.06432       -3.36480
C         -0.39568        3.59395       -2.42117
C         -1.02355        2.75543       -1.52164
C          1.17469       -2.63179       -1.61743
C          0.66985       -3.38272       -2.66044
C         -0.05703       -2.76501       -3.65638
C         -0.28281       -1.39846       -3.63447
C          0.24884       -0.62963       -2.58132
Cl         1.43681        0.19730        3.03464
Cl        -1.71478       -0.36483        2.93542
C         -1.07416       -0.77004       -4.72757
C          1.62912        1.17256       -4.46274
H         -0.57090        4.65662       -2.38219
H         -1.68633        3.16023       -0.77418
H          1.73792       -3.10520       -0.82959
H          0.84273       -4.44593       -2.69364
H          0.96175        3.71483       -4.06052
H         -0.46262       -3.34759       -4.46634
C         -3.69983       -3.24403       -2.07819
C         -2.78062       -3.43715       -1.05511
C         -2.13851       -2.31824       -0.53885
C         -2.39244       -1.07341       -1.05839
C         -3.28755       -0.90174       -2.08656
C         -3.96968       -1.99196       -2.61479
H         -4.23857       -4.09377       -2.45478
H         -1.44133       -2.40494        0.27643
H         -3.45777        0.09356       -2.46083
C         -4.67488        2.66490        2.08021
C         -3.33241        2.98254        2.24030
C         -2.40457        2.29325        1.46891
C         -2.81261        1.31536        0.59451
C         -4.14484        1.01167        0.45660
C         -5.10788        1.68972        1.19211
H         -5.40380        3.17969        2.67879
H         -1.35167        2.49343        1.56707
H         -4.42840        0.22556       -0.21930
C          4.40968       -2.84248        2.38025
C          3.05913       -3.16954        2.37232
C          2.21075       -2.42412        1.56161
C          2.70133       -1.38589        0.80794
C          4.03825       -1.07488        0.83688
C          4.92405       -1.79984        1.62037
H          5.06930       -3.40878        3.01043
H          1.15437       -2.62794        1.53555
H          4.39697       -0.24355        0.25672
C          3.92765        3.33055       -1.36735
C          2.88579        3.47060       -0.45926
C          2.17030        2.33188       -0.11016
C          2.47435        1.12216       -0.68236
C          3.48979        1.00500       -1.60020
C          4.24858        2.11396       -1.95554
H          4.52306        4.19242       -1.60544
H          1.37760        2.37485        0.61634
H          3.69477        0.03486       -2.02067
Pd        -0.10024       -0.03941        1.40862
C         -1.36070       -4.86674        0.48925
C         -2.54201       -4.84649       -0.49796
C         -2.22087       -5.81486       -1.65266
C         -3.80964       -5.31616        0.23673
H         -1.16977       -5.87973        0.84333
H         -0.45104       -4.50270        0.01224
H         -1.56758       -4.24731        1.36164
H         -1.99772       -6.81205       -1.27367
H         -3.05741       -5.90461       -2.34418
H         -1.35612       -5.46758       -2.21671
H         -4.66478       -5.34947       -0.43768
H         -3.67225       -6.31310        0.65507
H         -4.05440       -4.63710        1.05333
C         -6.41688       -2.19116       -3.09672
C         -5.04454       -1.84365       -3.70170
C         -4.74551       -2.80176       -4.87101
C         -5.09959       -0.40500       -4.25151
H         -6.43589       -3.21607       -2.72751
H         -6.64831       -1.53189       -2.26122
H         -7.20874       -2.08699       -3.83827
H         -5.48339       -2.68712       -5.66492
H         -3.76302       -2.60412       -5.29636
H         -4.76671       -3.84220       -4.54976
H         -5.36960        0.30498       -3.47013
H         -4.13872       -0.10778       -4.67039
H         -5.84558       -0.32129       -5.04169
C         -1.39382        4.25493        3.28411
C         -2.91575        4.02085        3.29115
C         -3.32351        3.51324        4.68619
C         -3.61478        5.36068        2.99600
H         -1.06645        4.62007        2.31200
H         -1.11148        4.99840        4.02933
H         -0.85255        3.33701        3.51302
H         -2.85041        2.55440        4.89768
H         -3.02321        4.21752        5.46175
H         -4.40189        3.37646        4.75759
H         -3.31467        6.12321        3.71457
H         -3.35725        5.71689        1.99865
H         -4.69849        5.26401        3.04771
C         -7.11188        0.82888        2.42368
C         -6.60401        1.36727        1.07409
C         -6.87062        0.30469       -0.01005
C         -7.37558        2.64619        0.69895
H         -8.16981        0.57279        2.36904
H         -6.56127       -0.06654        2.71148
H         -6.98672        1.56663        3.21545
H         -7.93741        0.09920       -0.09740
H         -6.51831        0.64508       -0.98357
H         -6.37354       -0.63509        0.22995
H         -7.00626        3.05608       -0.24096
H         -8.43930        2.43953        0.58218
H         -7.26864        3.41403        1.46412
C          3.27588       -5.60006        2.96709
C          2.54292       -4.28534        3.29171
C          1.03123       -4.51498        3.11082
C          2.80254       -3.88875        4.75646
H          2.90763       -6.41528        3.58972
H          3.12407       -5.87715        1.92398
H          4.34801       -5.51073        3.13735
H          0.67834       -5.31291        3.76397
H          0.46394       -3.61620        3.35233
H          0.80778       -4.80404        2.08526
H          2.30548       -2.94777        4.99186
H          2.42740       -4.65016        5.43999
H          3.86712       -3.76144        4.94916
C          6.97774       -1.57040        0.20429
C          6.40905       -1.41092        1.62625
C          7.22740       -2.29656        2.58492
C          6.54729        0.05581        2.07744
H          6.87980       -2.60098       -0.13630
H          6.45040       -0.93382       -0.50477
H          8.03365       -1.30231        0.17300
H          6.86493       -2.20478        3.60862
H          7.17546       -3.34489        2.29156
H          8.27751       -2.00459        2.57928
H          6.03303        0.73204        1.39550
H          6.11927        0.19423        3.07003
H          7.59442        0.35549        2.11552
C          2.41910        5.89055       -0.95402
C          2.59180        4.84222        0.16178
C          3.76472        5.24168        1.07395
C          1.30020        4.81370        0.99968
H          1.62437        5.59632       -1.63851
H          2.16167        6.86407       -0.53712
H          3.33278        6.01116       -1.53433
H          3.90500        4.50458        1.86445
H          4.69516        5.30886        0.51098
H          3.58417        6.20941        1.54156
H          1.07571        5.80275        1.39885
H          0.45161        4.49819        0.39310
H          1.39578        4.13232        1.84475
C          5.38374        3.08952       -3.98407
C          5.46414        2.00931       -2.88788
C          5.53767        0.62976       -3.57165
C          6.74307        2.21558       -2.05627
H          6.22106        3.00254       -4.67635
H          4.46330        2.99397       -4.55823
H          5.41114        4.09240       -3.56043
H          6.38158        0.58392       -4.25986
H          5.66988       -0.16700       -2.84037
H          4.63260        0.42616       -4.14294
H          6.81522        1.46745       -1.26732
H          7.63288        2.13588       -2.68047
H          6.74991        3.19793       -1.58487
H         -1.93470       -1.38646       -4.98607
H          2.52616        1.78906       -4.52010
H         -0.46906       -0.64864       -5.62699
H         -1.44903        0.21185       -4.43562
H          1.16352        1.16850       -5.44922
H          1.94420        0.15412       -4.23193
