111
-148.55861860
P         -2.54350       -2.16117       -0.36129
P          0.04791       -0.32421       -0.42383
C         -1.67021       -1.88650       -1.92479
C         -0.53944       -1.09947       -1.94334
C         -3.16430       -3.89787       -0.21990
C         -2.32430       -4.70351        0.74707
C         -2.14133       -2.44386       -3.09628
H         -3.03702       -3.04299       -3.07920
C         -1.46997       -2.21772       -4.28550
H         -1.83611       -2.65390       -5.20057
C         -0.33510       -1.42995       -4.30151
H          0.18625       -1.25113       -5.22748
C          0.12818       -0.86435       -3.12715
H          1.00629       -0.23770       -3.12515
Pd        -1.14227       -1.35568        1.27951
Cl        -2.63558       -2.07434        2.79098
Cl         0.30811       -0.49493        2.75721
C         -4.62918       -3.69906        0.21254
C         -4.13687       -1.22692       -0.25350
H         -2.69465       -5.72705        0.84101
H         -1.28100       -4.74759        0.42528
H         -2.34107       -4.25485        1.74153
H         -4.67854       -3.72616        1.30991
H         -5.24897       -4.54080       -0.13229
H         -4.13629       -0.73524        0.72843
C         -5.19787       -2.34324       -0.29604
C         -4.25136       -0.20879       -1.36845
H         -3.11806       -4.33219       -1.22655
H         -5.54760       -2.45920       -1.33110
H         -6.08606       -2.04858        0.28329
H         -3.43328        0.51448       -1.33364
H         -4.21050       -0.69761       -2.34352
H         -5.19431        0.34011       -1.31344
C         -1.25114        4.04437       -0.50974
C         -1.92328        3.12608        0.33611
C         -1.51849        1.80265        0.31869
C         -0.43857        1.39993       -0.42279
C          0.27858        2.30344       -1.16281
C         -0.08192        3.64076       -1.20354
O         -1.76345        5.35743       -0.68636
C         -3.07891        3.53723        1.26291
H         -2.05224        1.06721        0.89294
H          1.12716        1.94389       -1.71875
C          0.76937        4.62575       -2.02042
C          4.51458       -0.87668        0.28643
C          3.83392        0.22296        0.86795
C          2.47639        0.35482        0.62746
C          1.81299       -0.51759       -0.19445
C          2.48493       -1.52810       -0.83159
C          3.84672       -1.70620       -0.65070
O          5.85020       -1.16933        0.67092
C          4.52828        1.23252        1.79506
H          1.90501        1.13154        1.10611
H          1.92501       -2.18676       -1.47231
C          4.56824       -2.80333       -1.44960
C         -4.41388        3.37829        0.52014
C         -3.10891        2.64206        2.52394
C         -2.90939        4.98811        1.74883
C          2.23743        4.15028       -2.09988
C          0.21001        4.71891       -3.44804
C          0.78419        6.01795       -1.36326
C         -2.72892        5.47069       -1.72432
H         -5.25040        3.67053        1.15436
H         -4.44250        3.99051       -0.37790
H         -4.56599        2.34226        0.21992
H         -3.83404        3.01545        3.24653
H         -3.39410        1.61817        2.28706
H         -2.13315        2.62196        3.00856
H         -3.69264        5.25869        2.45647
H         -1.94678        5.11671        2.24261
H         -2.95597        5.69226        0.92204
H          2.86375        4.90614       -2.57321
H          2.63667        3.96204       -1.10434
H          2.33579        3.23955       -2.68880
H          0.21913        3.74134       -3.92963
H         -0.81627        5.07737       -3.44693
H          0.80362        5.40092       -4.05630
H          1.43791        6.70051       -1.90569
H         -0.20946        6.45891       -1.34581
H          1.13925        5.95298       -0.33526
H         -2.39615        6.21098       -2.45175
H         -2.86937        4.50961       -2.22062
H         -3.67793        5.80763       -1.30782
C          5.95277       -2.06675        1.76951
C          3.84021        2.61394        1.71387
C          4.44148        0.72826        3.24366
C          5.99859        1.44130        1.38976
C          6.03136       -2.41537       -1.73102
C          4.51120       -4.12429       -0.66766
C          3.88825       -3.01232       -2.82232
H          3.77851        2.95342        0.68096
H          2.83408        2.59043        2.12965
H          4.40115        3.35916        2.27738
H          4.91064        1.43129        3.93137
H          3.40166        0.60262        3.54480
H          4.93576       -0.23352        3.35663
H          6.47114        2.20358        2.00871
H          6.57487        0.52613        1.49908
H          6.06837        1.75756        0.34951
H          6.52254       -3.16334       -2.35293
H          6.08157       -1.45785       -2.24833
H          6.60317       -2.32694       -0.81077
H          5.00481       -4.92516       -1.21759
H          4.99844       -4.03148        0.29992
H          3.47819       -4.42288       -0.49074
H          2.89415       -3.44476       -2.71954
H          4.47023       -3.69371       -3.44249
H          3.79763       -2.06747       -3.35765
H          6.51265       -2.95197        1.46837
H          6.49132       -1.58551        2.58571
H          4.96052       -2.36235        2.11276
