64
-97.22220210
Cl        -1.26354       -0.33928       -2.84782
Cl         1.98861       -0.66139       -2.85251
P          1.94411       -0.65829        0.37826
C          2.03170       -2.41321        0.97510
C          3.76878       -0.33135        0.23339
P         -1.26206       -0.32928        0.35580
C          1.15939        0.48464        1.57230
C         -0.28489        0.61247        1.59027
C         -0.61971        1.63915        2.56688
C          0.62064        2.12864        3.14609
C          1.72512        1.39047        2.55854
H         -1.62650        1.95153        2.85143
H          0.70452        2.88774        3.92734
Pd         0.34969       -0.67712       -1.33111
H          2.78635        1.51913        2.77855
C         -5.17132        1.62414       -0.95521
C         -4.85584        0.33910       -1.34894
C         -3.66553       -0.23443       -0.93830
C         -2.79504        0.47659       -0.14393
C         -3.11417        1.75385        0.25656
C         -4.30158        2.33266       -0.15060
H         -6.09690        2.07401       -1.27568
H         -5.53253       -0.21615       -1.97748
H         -3.40476       -1.23606       -1.24212
H         -2.43228        2.29772        0.88502
H         -4.54651        3.33536        0.15940
C         -2.37110       -4.43342        1.95489
C         -1.95951       -4.29871        0.64318
C         -1.62611       -3.05008        0.15070
C         -1.70146       -1.95086        0.97468
C         -2.12063       -2.07596        2.27903
C         -2.45521       -3.32411        2.77377
H         -2.63079       -5.40625        2.33944
H         -1.89954       -5.16364        0.00317
H         -1.31529       -2.92629       -0.87430
H         -2.17691       -1.19829        2.90380
H         -2.77968       -3.42925        3.79600
C          4.17631        0.61480       -0.87432
H          4.06591        0.07634        1.20884
C          4.33936       -1.75030        0.07136
H          5.40458       -1.76975        0.34842
C          3.52756       -2.78079        0.89815
H          4.30540       -2.02184       -0.99310
C          1.46042       -2.52315        2.37220
H          1.44582       -3.00575        0.25991
H          3.93243       -2.82517        1.91810
H          3.65355       -3.79500        0.49142
H          0.42227       -2.19056        2.40630
H          1.49878       -3.55070        2.74132
H          2.02271       -1.89664        3.06755
H          5.26304        0.69504       -0.94368
H          3.81445        0.26379       -1.84008
H          3.78314        1.61789       -0.71277
Fe         0.59256        2.36740        1.12248
C          1.24336        2.47262       -0.81801
C          1.91341        3.47139       -0.00545
C          0.89322        4.32524        0.57801
C         -0.40279        3.86220        0.11326
C         -0.18403        2.71316       -0.74589
H          1.71406        1.71033       -1.44228
H          2.99154        3.58539        0.12651
H          1.07174        5.18754        1.22450
H         -1.36597        4.32618        0.33693
H         -0.94525        2.14904       -1.28883
