115
-277.94186090
P         -1.64034       -0.60309       -0.00618
P          2.04636        0.40869        0.03692
C         -2.11010       -2.32633        0.19807
C         -1.15183       -3.27499        0.48265
H         -0.16618       -2.97487        0.79769
C         -1.43496       -4.60944        0.27755
H         -0.66883       -5.36155        0.38662
C         -2.66541       -4.99086       -0.23230
C         -3.66099       -4.03766       -0.39187
H         -4.61119       -4.33673       -0.80439
C         -3.38530       -2.70248       -0.16948
H         -4.12607       -1.94826       -0.38552
C         -3.02614        0.38822        0.59860
C         -3.75094        1.12799       -0.30769
H         -3.47120        1.12463       -1.34844
C         -4.83855        1.86303        0.11506
H         -5.42099        2.44223       -0.58398
C         -5.21019        1.85821        1.44590
C         -4.48408        1.10671        2.34790
H         -4.79500        1.09700        3.38079
C         -3.39417        0.37671        1.92336
H         -2.83190       -0.21411        2.62792
C         -1.36536       -0.21174       -1.76834
C         -0.84789        1.06089       -1.91077
H         -0.60221        1.62566       -1.02838
C         -0.49085        1.56517       -3.16027
C         -0.87830        0.84272       -4.28247
H         -0.65113        1.22819       -5.26230
C         -1.39742       -0.42968       -4.14980
H         -1.57030       -1.02340       -5.03147
C         -1.53783       -1.02663       -2.89695
C          1.82264       -0.18456       -1.67487
C          1.30468       -1.46750       -1.70418
H          1.01543       -1.93779       -0.77874
C          1.00374       -2.10059       -2.90975
C          1.44489       -1.49723       -4.08185
H          1.26121       -1.98298       -5.02559
C          1.95707       -0.21546       -4.06107
H          2.16821        0.28331       -4.99183
C          2.04226        0.51032       -2.87314
C         -1.51505       -2.53877       -2.84922
H         -2.16246       -2.93889       -3.63816
H         -1.98894       -2.88025       -1.93282
C         -0.07238       -3.15261       -2.96701
H          0.10054       -3.89932       -2.18470
H          0.02604       -3.71320       -3.90343
C          0.58580        2.61113       -3.26316
H          0.35457        3.43184       -2.57559
H          0.54667        3.06868       -4.25799
C          2.01796        2.02061       -2.98473
H          2.71477        2.33438       -3.76998
H          2.42816        2.45397       -2.07641
C          2.12167        2.20044        0.18219
C          0.97658        2.93440        0.40293
C          3.31131        2.82936       -0.11895
C          0.99149        4.29567        0.18452
C          3.32426        4.19280       -0.33699
C          2.15031        4.92161       -0.24747
C          3.57067       -0.28522        0.71636
C          4.05473       -1.45878        0.18601
C          4.25752        0.34787        1.72687
C          5.22841       -1.99991        0.66622
H          3.52371       -1.94392       -0.61590
C          5.43176       -0.19405        2.20913
H          3.87045        1.26360        2.14449
C          5.92248       -1.37244        1.68285
H          5.62914       -2.90959        0.24862
H          5.98964        0.29210        2.99398
Pd         0.23018       -0.25803        1.37893
Cl        -1.13030       -1.27176        2.86215
Cl         1.70864        0.32682        2.97110
H          4.21409        4.68989       -0.69080
H          4.20202        2.24343       -0.28445
H          0.08159        4.87057        0.24641
H          0.06396        2.44454        0.69894
C         -4.20729       -6.84088       -1.03328
C         -2.74330       -6.32293       -0.93647
C         -2.08643       -6.10105       -2.33685
F         -4.72880       -6.82084        0.20227
F         -4.91780       -6.03757       -1.83696
F         -4.19881       -8.09489       -1.51154
F         -2.02304       -7.23543       -0.27976
F         -2.19065       -7.21656       -3.07135
F         -2.68742       -5.06839       -2.94381
F         -0.79906       -5.79212       -2.13098
C         -6.40680        4.06695        1.36923
C         -6.43454        2.60646        1.90816
C         -7.69862        1.82735        1.44470
F         -5.22304        4.59973        1.70803
F         -6.53425        4.05529        0.03496
F         -7.40604        4.76424        1.93165
F         -6.45904        2.66749        3.24241
F         -7.66851        1.69025        0.11096
F         -7.65939        0.61814        2.02461
F         -8.79936        2.49115        1.82867
C          7.16708       -3.45166        2.36701
C          7.24719       -1.90975        2.16150
C          8.34217       -1.50465        1.13340
F          6.10336       -3.70183        3.14505
F          7.01281       -4.05626        1.18084
F          8.28955       -3.87522        2.96825
F          7.56716       -1.36047        3.33643
F          8.38493       -0.16415        1.10135
F          9.52708       -1.99844        1.52252
F          8.00628       -1.97480       -0.07691
C          1.56219        5.95193       -2.39032
C          2.07941        6.25402       -0.94887
C          1.17715        7.25955       -0.17721
F          1.54552        7.08101       -3.11144
F          2.39596        5.05539       -2.93690
F          0.33957        5.41265       -2.31395
F          3.29861        6.78901       -1.05155
F          1.23388        8.45462       -0.78546
F         -0.08455        6.80844       -0.14795
F          1.65396        7.35403        1.07317
