75
-122.81195045
P          1.87830       -0.52933        0.13987
C          1.60914       -1.58503       -1.28699
C          1.23608       -2.89316       -1.07881
C          1.13962       -3.75766       -2.15458
C          1.42471       -3.30584       -3.42797
C          1.80141       -1.99276       -3.63026
C          1.89669       -1.13049       -2.55353
H          2.19701       -0.10469       -2.69281
H          2.01963       -1.63927       -4.62450
H          1.34612       -3.97791       -4.26683
H          0.84288       -4.78158       -1.99771
H          1.03715       -3.23486       -0.07496
C          3.29970       -1.22827        1.00827
C          4.23531       -1.91400        0.26574
C          5.34397       -2.46315        0.88439
C          5.51242       -2.31937        2.24689
C          4.57872       -1.62386        2.98814
C          3.47499       -1.07602        2.36374
H          2.75903       -0.50445        2.92709
H          4.71292       -1.50164        4.05042
H          6.37532       -2.74652        2.73132
H          6.07370       -3.00234        0.30298
H          4.09350       -2.01915       -0.79807
C          2.26183        1.15310       -0.35944
C          3.42017        1.80143       -0.00115
C          3.59821        3.14411       -0.30671
C          2.56300        3.82918       -0.94283
C          1.39175        3.19348       -1.29174
C          1.24532        1.82368       -1.02170
O          0.07374        1.13245       -1.36863
C         -1.13178        1.78785       -1.07272
C         -1.29300        3.16062       -1.31787
C         -2.47997        3.77067       -0.97850
C         -3.51473        3.05511       -0.37684
C         -3.33972        1.69897       -0.13913
C         -2.16667        1.07217       -0.48947
P         -1.76460       -0.65127       -0.13251
C         -3.04487       -1.41936        0.87551
C         -4.34380       -1.40293        0.42035
C         -5.34141       -2.01024        1.16134
C         -5.02840       -2.64014        2.34921
C         -3.72129       -2.67097        2.79246
C         -2.72622       -2.06348        2.04896
H         -1.70145       -2.09039        2.38215
H         -3.47550       -3.16698        3.71705
H         -5.80459       -3.11254        2.92891
H         -6.35975       -1.99443        0.80919
H         -4.56967       -0.93138       -0.52324
C         -1.73696       -1.56256       -1.68760
C         -1.39385       -0.93340       -2.86215
C         -1.45997       -1.61955       -4.06020
C         -1.86480       -2.93930       -4.07404
C         -2.20040       -3.57222       -2.89371
C         -2.13847       -2.87931       -1.69810
H         -2.41292       -3.35733       -0.77137
H         -2.51367       -4.60320       -2.90309
H         -1.91221       -3.47795       -5.00633
H         -1.18695       -1.12695       -4.97887
H         -1.05563        0.08830       -2.83328
Pd        -0.06729       -0.01554        1.41639
Cl        -1.75117        0.84989        2.64741
Cl         1.36764        1.08554        2.76248
H         -4.11636        1.14133        0.35237
C         -4.79154        3.72473       -0.01153
H         -5.53983        3.58468       -0.79262
H         -4.64861        4.79669        0.13035
H         -5.19348        3.31896        0.91782
H         -2.60118        4.82178       -1.17218
S          0.04671        4.06354       -2.05449
H          2.66995        4.87879       -1.15254
C          4.83766        3.85488        0.10494
H          4.18037        1.26721        0.54203
H          4.73280        4.26188        1.11141
H          5.69594        3.18169        0.10157
H          5.06119        4.68076       -0.57158
