115
-277.94781436
P         -1.77966       -0.61224       -0.02774
P          1.88673        0.46862       -0.05522
C         -2.08561       -2.37476        0.16989
C         -1.05152       -3.23700        0.46358
H         -0.09433       -2.85465        0.77604
C         -1.22336       -4.59298        0.27646
H         -0.39753       -5.27784        0.39220
C         -2.42224       -5.08288       -0.21477
C         -3.49246       -4.21762       -0.38419
H         -4.41554       -4.60041       -0.78876
C         -3.32618       -2.86153       -0.18523
H         -4.12677       -2.17565       -0.41548
C         -3.22003        0.26072        0.63460
C         -3.97434       -0.28925        1.64608
H         -3.69589       -1.24465        2.06172
C         -5.07412        0.38606        2.13568
H         -5.67984       -0.03148        2.92458
C         -5.42378        1.61591        1.61522
C         -4.66689        2.15797        0.59446
H         -4.95875        3.11072        0.18192
C         -3.56800        1.48303        0.10693
H         -2.99264        1.90475       -0.69940
C         -1.53590       -0.15538       -1.77922
C         -1.00309        1.11539       -1.88721
H         -0.71063        1.63604       -0.99175
C         -0.67827        1.66746       -3.12443
C         -1.09402        0.98887       -4.26311
H         -0.88930        1.41104       -5.23270
C         -1.61130       -0.28741       -4.16595
H         -1.80291       -0.84775       -5.06545
C         -1.72954       -0.93009       -2.93304
C          1.66009       -0.09890       -1.77365
C          1.13872       -1.37959       -1.81256
H          0.85829       -1.85910       -0.88948
C          0.81576       -1.99581       -3.02068
C          1.23271       -1.37667       -4.19264
H          1.02980       -1.84913       -5.13917
C          1.74829       -0.09656       -4.16259
H          1.94240        0.41496       -5.09016
C          1.85997        0.61150       -2.96573
C         -1.70138       -2.44429       -2.94423
H         -2.33197       -2.80991       -3.76279
H         -2.19088       -2.82479       -2.05189
C         -0.25502       -3.05210       -3.06556
H         -0.06971       -3.78839       -2.27623
H         -0.15762       -3.62364       -3.99554
C          0.38997        2.72287       -3.21557
H          0.19668        3.49423       -2.46236
H          0.29565        3.24927       -4.17208
C          1.83624        2.12260       -3.05606
H          2.46904        2.44000       -3.89262
H          2.32411        2.54496       -2.18154
C          1.97174        2.25758        0.12189
C          0.84555        2.99505        0.41772
C          3.15139        2.88527       -0.21683
C          0.86158        4.36240        0.23528
C          3.16314        4.25182       -0.40863
C          2.00074        4.98842       -0.24302
C          3.40052       -0.24185        0.62720
C          3.85280       -1.43955        0.12362
C          4.10318        0.39504        1.62430
C          5.00918       -2.00309        0.61984
H          3.30956       -1.92822       -0.66788
C          5.26036       -0.16910        2.12230
H          3.73956        1.32894        2.02223
C          5.71750       -1.37342        1.62517
H          5.38349       -2.93483        0.22659
H          5.82838        0.31708        2.89984
Pd         0.10443       -0.18213        1.32746
Cl        -1.47174       -0.47954        2.91161
Cl         1.57579        0.33941        2.95096
H          4.04084        4.74070       -0.79962
H          4.03011        2.29739       -0.43330
H         -0.03594        4.94941        0.35501
H         -0.05645        2.50613        0.74570
C         -3.82147       -7.07578       -0.92402
C         -2.40573       -6.43090       -0.89058
C         -1.82053       -6.17996       -2.31698
F         -3.71836       -8.33870       -1.36640
F         -4.30453       -7.06191        0.32713
F         -4.62328       -6.36202       -1.72628
F         -1.58567       -7.26288       -0.24403
F         -0.55193       -5.77863       -2.16254
F         -1.87341       -7.30794       -3.03784
F         -2.51528       -5.19796       -2.90854
C         -6.36486        3.82250        2.37164
C         -6.66213        2.31542        2.11506
C         -7.80310        2.10403        1.07915
F         -5.27929        3.89295        3.15663
F         -6.12150        4.43723        1.20572
F         -7.41813        4.38136        2.98745
F         -7.05724        1.77792        3.27247
F         -8.03118        0.78442        0.99794
F         -8.90808        2.74186        1.49362
F         -7.40688        2.56855       -0.11497
C          6.85588       -3.47109        2.42017
C          7.01559       -1.94887        2.13169
C          8.12842       -1.65776        1.08446
F          7.95784       -3.92066        3.04016
F          5.78475       -3.62258        3.21345
F          6.66327       -4.12898        1.26844
F          7.36590       -1.35438        3.27554
F          8.23812       -0.32503        0.97620
F          9.28759       -2.18683        1.50389
F          7.76924       -2.17917       -0.09781
C          3.18110        7.13761       -0.88787
C          1.84656        6.33719       -0.89900
C          1.32792        6.04746       -2.34309
F          2.94501        8.39088       -1.30616
F          3.63840        7.14924        0.37295
F          4.07352        6.53694       -1.68715
F          0.92325        7.06033       -0.26079
F          0.10229        5.52016       -2.22773
F          1.28788        7.18356       -3.05214
F          2.13189        5.14551       -2.92379
