171
-217.84378045
P         -1.58493        0.34058       -0.48705
P          1.59841       -0.36248       -0.21622
C         -0.79056        1.34362       -1.74573
C          1.04561       -1.31356       -1.63573
C          0.08677        0.76271       -2.65429
C          0.75775        1.59411       -3.57231
C          0.50047        2.95498       -3.56729
C         -0.39363        3.50692       -2.67469
C         -1.03306        2.69541       -1.75849
C          1.30562       -2.66237       -1.65501
C          0.83257       -3.44734       -2.68753
C          0.08146       -2.87259       -3.69053
C         -0.19224       -1.51464       -3.68965
C          0.31807       -0.70844       -2.65428
Cl         1.24075        0.10444        3.06095
Cl        -1.83711       -0.45920        2.75411
C         -1.00624       -0.93116       -4.79028
C          1.73381        1.04136       -4.55132
H         -0.58973        4.56657       -2.68865
H         -1.72707        3.11907       -1.05097
H          1.88302       -3.10508       -0.86000
H          1.04443       -4.50395       -2.70416
H          1.01277        3.58513       -4.27471
H         -0.30276       -3.48228       -4.49088
C         -3.74329       -3.30165       -2.07646
C         -2.74250       -3.47308       -1.12816
C         -2.08702       -2.34022       -0.66311
C         -2.40933       -1.10067       -1.15628
C         -3.38793       -0.94902       -2.10787
C         -4.09196       -2.05195       -2.57585
H         -4.27139       -4.17074       -2.42050
H         -1.32165       -2.41375        0.08987
H         -3.61414        0.03925       -2.47255
C         -4.47466        2.71107        2.09444
C         -3.12944        3.06051        2.09641
C         -2.27437        2.35202        1.26245
C         -2.74428        1.32130        0.48666
C         -4.07314        0.97877        0.51327
C         -4.96798        1.66600        1.32216
H         -5.15358        3.26285        2.71512
H         -1.22528        2.58998        1.22949
H         -4.41389        0.15910       -0.09405
C          4.36123       -2.76565        2.46979
C          3.03565       -3.16800        2.34730
C          2.21081       -2.44387        1.49659
C          2.69111       -1.35090        0.81962
C          3.99852       -0.96016        0.96418
C          4.86450       -1.66257        1.78980
H          5.01485       -3.31954        3.11551
H          1.17769       -2.72239        1.37531
H          4.34679       -0.08941        0.43692
C          3.84821        3.44777       -1.13676
C          2.80367        3.49095       -0.22107
C          2.10040        2.31761        0.01580
C          2.43272        1.16177       -0.64510
C          3.46782        1.13324       -1.54719
C          4.20322        2.28377       -1.80790
H          4.42033        4.33727       -1.32162
H          1.30401        2.29645        0.74012
H          3.70928        0.19877       -2.02482
Pd        -0.15085       -0.11182        1.30436
C         -2.09439       -5.81310       -1.77207
C         -2.42239       -4.87590       -0.59458
C         -3.64313       -5.41265        0.17344
C         -1.21224       -4.85450        0.35875
H         -1.82111       -6.80601       -1.41534
H         -2.94567       -5.92467       -2.44224
H         -1.26030       -5.42244       -2.35366
H         -3.44471       -6.40503        0.57789
H         -3.89492       -4.75298        1.00369
H         -4.51640       -5.48296       -0.47423
H         -1.41389       -4.24293        1.23786
H         -0.97497       -5.86007        0.70569
H         -0.33058       -4.45874       -0.14395
C         -6.25118       -0.84893       -3.00448
C         -5.23750       -1.85519       -3.58097
C         -5.97816       -3.17586       -3.86785
C         -4.67340       -1.31387       -4.90557
H         -6.62797       -1.19143       -2.04088
H         -5.79669        0.13039       -2.86167
H         -7.10176       -0.72394       -3.67433
H         -6.80210       -3.01367       -4.56272
H         -5.31117       -3.91167       -4.31664
H         -6.39524       -3.59740       -2.95338
H         -4.14187       -0.37512       -4.75353
H         -3.98141       -2.02895       -5.34876
H         -5.47255       -1.13293       -5.62425
C         -1.22928        3.80653        3.57668
C         -2.58363        4.20922        2.95711
C         -3.54619        4.55614        4.11039
C         -2.39954        5.44976        2.06776
H         -1.32271        2.87531        4.13511
H         -0.46538        3.66555        2.81475
H         -0.86868        4.57554        4.25950
H         -3.76248        3.67471        4.71384
H         -3.10934        5.31018        4.76507
H         -4.48704        4.95862        3.73654
H         -1.73474        5.23429        1.23275
H         -3.35476        5.77322        1.65459
H         -1.97615        6.27921        2.63390
C         -6.57170       -0.25788        1.54446
C         -6.44983        1.26325        1.32384
C         -7.07078        1.64177       -0.03142
C         -7.23288        1.97516        2.44414
H         -7.61704       -0.56029        1.60416
H         -6.11364       -0.81949        0.73148
H         -6.08142       -0.55161        2.47234
H         -6.55229        1.14464       -0.84954
H         -8.12164        1.35613       -0.07483
H         -7.00399        2.71650       -0.19954
H         -7.24165        3.05467        2.29573
H         -8.26999        1.64044        2.46356
H         -6.79707        1.76284        3.42029
C          1.17148       -3.94838        3.83920
C          2.46039       -4.37207        3.10624
C          3.45276       -4.91434        4.15293
C          2.14283       -5.49109        2.09973
H          0.39657       -3.63604        3.14086
H          0.76983       -4.77148        4.42974
H          1.36892       -3.11396        4.51174
H          4.36005       -5.28921        3.67987
H          3.72904       -4.13884        4.86716
H          3.01167       -5.73907        4.71262
H          3.04702       -5.81342        1.58368
H          1.71048       -6.35742        2.60004
H          1.43529       -5.14914        1.34632
C          6.99577       -1.24424        0.54002
C          6.31784       -1.18599        1.92161
C          7.12058       -2.06375        2.90041
C          6.32950        0.26420        2.44201
H          6.48523       -0.60340       -0.17777
H          8.03369       -0.91730        0.59985
H          6.98323       -2.26084        0.14751
H          7.15725       -3.09849        2.56024
H          8.14749       -1.70835        2.98510
H          6.68077       -2.04190        3.89733
H          5.82210        0.33116        3.40412
H          7.34992        0.62435        2.57150
H          5.82450        0.93848        1.75116
C          3.34765        5.94450        0.19679
C          2.43016        4.76026        0.55614
C          2.55917        4.48389        2.06624
C          0.98035        5.14742        0.21934
H          3.27658        6.18830       -0.86308
H          3.06669        6.83489        0.75920
H          4.38794        5.72032        0.43203
H          2.29674        5.36661        2.64903
H          1.90547        3.67119        2.37925
H          3.58121        4.20275        2.31927
H          0.66982        6.02810        0.78117
H          0.88000        5.37101       -0.84215
H          0.29406        4.33606        0.45483
C          5.61052        0.91997       -3.43368
C          5.42483        2.28283       -2.73799
C          6.68559        2.57881       -1.90456
C          5.25487        3.36585       -3.82008
H          5.78441        0.12759       -2.70604
H          4.73517        0.65727       -4.02631
H          6.46903        0.94250       -4.10477
H          6.62223        3.55585       -1.42673
H          6.81343        1.83229       -1.12093
H          7.57837        2.56913       -2.52956
H          4.34633        3.19916       -4.39715
H          5.19300        4.36081       -3.38128
H          6.09783        3.36102       -4.51090
H         -0.38163       -0.68165       -5.64873
H          2.62233        1.67020       -4.60796
H         -1.51772       -0.02355       -4.46655
H         -1.76508       -1.63779       -5.12678
H          1.29856        0.99124       -5.55023
H          2.05763        0.03810       -4.27125
