111
-148.55573849
P         -1.67401       -2.79573       -0.18506
P         -0.48058        0.10396       -0.55383
C         -1.53625       -2.07981       -1.84883
C         -1.08366       -0.78600       -1.99959
C         -0.51933       -4.22720        0.00431
C          0.53459       -3.92510        1.04886
C         -1.85279       -2.82944       -2.96383
H         -2.16893       -3.85271       -2.84448
C         -1.73948       -2.27057       -4.22523
H         -1.99066       -2.85452       -5.09560
C         -1.29912       -0.96887       -4.37100
H         -1.20552       -0.53641       -5.35354
C         -0.95947       -0.22694       -3.25395
H         -0.57982        0.77817       -3.35006
Pd        -1.39839       -1.00444        1.24972
Cl        -2.55215       -2.10849        2.82101
Cl        -0.99955        0.82196        2.49994
C         -1.45401       -5.39810        0.37073
C         -3.29347       -3.64521        0.10652
H          0.06978       -3.70881        2.01300
H          1.21318       -4.76990        1.18868
H          1.13226       -3.05356        0.77366
H         -1.41717       -5.54909        1.45828
H         -1.08220       -6.33637       -0.06784
H         -3.55388       -3.44260        1.15341
C         -2.92488       -5.13039       -0.05932
C         -4.39020       -3.14668       -0.81029
H         -0.06624       -4.38483       -0.98317
H         -3.06102       -5.41605       -1.11136
H         -3.62278       -5.76334        0.51002
H         -5.34093       -3.64136       -0.59896
H         -4.53704       -2.06971       -0.70103
H         -4.14835       -3.33885       -1.85587
C         -0.80688        4.63966       -0.66570
C          0.35362        4.00264       -1.17506
C          0.41779        2.61995       -1.12338
C         -0.64023        1.88032       -0.66317
C         -1.80657        2.48490       -0.27531
C         -1.93611        3.86407       -0.29728
O         -0.82267        6.04840       -0.48546
C          1.55201        4.78413       -1.73587
H          1.31039        2.09796       -1.42314
H         -2.61056        1.86018        0.07447
C         -3.27141        4.49422        0.12794
C          3.75851       -1.28461        0.35552
C          3.14901       -0.29498        1.16881
C          1.85688        0.09734        0.86456
C          1.21387       -0.38613       -0.24306
C          1.83410       -1.26750       -1.08885
C          3.12156       -1.71067       -0.83829
O          4.98407       -1.87992        0.75666
C          3.84017        0.32249        2.39366
H          1.31043        0.75681        1.51631
H          1.28745       -1.62433       -1.94359
C          3.78845       -2.67135       -1.83501
C          1.09951        6.09874       -2.39698
C          2.54460        5.07519       -0.59993
C          2.27745        3.96063       -2.82451
C         -3.26087        4.72236        1.64726
C         -3.52081        5.82291       -0.60853
C         -4.45153        3.55916       -0.22136
C         -0.35261        6.47322        0.78792
H          1.94233        6.61972       -2.85054
H          0.36296        5.90281       -3.17549
H          0.64795        6.77263       -1.67340
H          2.08269        5.66819        0.18572
H          2.89728        4.14738       -0.15030
H          3.41169        5.62212       -0.96932
H          2.77173        3.08499       -2.40639
H          1.57656        3.62712       -3.58936
H          3.04662        4.55834       -3.31313
H         -2.46036        5.39777        1.93907
H         -4.20380        5.15171        1.98471
H         -3.10879        3.78172        2.17618
H         -4.49673        6.23515       -0.35338
H         -2.77229        6.56746       -0.34975
H         -3.48614        5.67578       -1.68747
H         -4.41996        3.27118       -1.27183
H         -4.44193        2.65392        0.38377
H         -5.40471        4.05482       -0.03870
H          0.50926        7.12800        0.66056
H         -1.13457        7.03588        1.29759
H         -0.06922        5.61240        1.39498
C          4.82806       -3.02215        1.58983
C          3.49492       -0.50586        3.64053
C          5.36591        0.38641        2.20023
C          3.35469        1.77379        2.61469
C          5.31102       -2.44953       -1.88130
C          3.47616       -4.12118       -1.43436
C          3.25323       -2.43248       -3.26547
H          3.96163       -0.08500        4.53067
H          2.41730       -0.52684        3.80197
H          3.83322       -1.53413        3.53733
H          5.84729        0.88209        3.04287
H          5.79784       -0.60719        2.11314
H          5.61459        0.93863        1.29456
H          3.93155        2.25929        3.40146
H          3.46785        2.36226        1.70473
H          2.30932        1.80907        2.91733
H          5.54042       -1.41273       -2.12500
H          5.77422       -2.67751       -0.92451
H          5.77720       -3.08609       -2.63294
H          2.40150       -4.29966       -1.44159
H          3.93858       -4.82533       -2.12553
H          3.84185       -4.34255       -0.43476
H          2.20842       -2.72535       -3.35941
H          3.81554       -3.01903       -3.99165
H          3.34221       -1.38234       -3.54253
H          5.31103       -3.88153        1.12501
H          5.30711       -2.84270        2.55212
H          3.77058       -3.23895        1.74560
