171
-217.84534434
P         -1.58889        0.33725       -0.43063
P          1.60198       -0.40319       -0.20391
C         -0.79494        1.30974       -1.71536
C          0.99608       -1.36861       -1.59530
C          0.05353        0.70265       -2.63371
C          0.71591        1.50792       -3.58037
C          0.48295        2.87317       -3.58896
C         -0.37814        3.45320       -2.68173
C         -1.01154        2.66576       -1.74051
C          1.21944       -2.72407       -1.58704
C          0.70517       -3.52058       -2.59081
C         -0.04950       -2.95057       -3.59400
C         -0.28654       -1.58635       -3.62223
C          0.26182       -0.77071       -2.61367
Cl         1.45302        0.31759        2.91369
Cl        -1.75451       -0.34067        2.85417
C         -1.11754       -1.01355       -4.71681
C          1.64468        0.91635       -4.58234
H         -0.55562        4.51593       -2.70602
H         -1.68142        3.11148       -1.02344
H          1.79911       -3.16343       -0.79181
H          0.88796       -4.58268       -2.58485
H          0.98654        3.48413       -4.31906
H         -0.46823       -3.56888       -4.37011
C         -3.71576       -3.36245       -1.92103
C         -2.76349       -3.49467       -0.91859
C         -2.11773       -2.34486       -0.48283
C         -2.40267       -1.12990       -1.05419
C         -3.33235       -1.01772       -2.05866
C         -4.01624       -2.14073       -2.51036
H         -4.25489       -4.23578       -2.23856
H         -1.39228       -2.38545        0.31086
H         -3.52585       -0.04393       -2.47549
C         -4.52908        2.84268        1.94914
C         -3.17294        3.13120        2.04488
C         -2.29587        2.37384        1.27967
C         -2.75837        1.34973        0.49117
C         -4.09905        1.06257        0.42992
C         -5.01636        1.81345        1.15320
H         -5.23068        3.42816        2.51272
H         -1.23789        2.56869        1.30837
H         -4.42369        0.23968       -0.18097
C          4.42911       -2.79077        2.42524
C          3.09169       -3.16842        2.37074
C          2.24521       -2.44944        1.53694
C          2.71841       -1.38650        0.80912
C          4.03793       -1.01866        0.88752
C          4.92440       -1.71646        1.69506
H          5.09900       -3.34124        3.05703
H          1.20257       -2.70921        1.46637
H          4.37934       -0.16783        0.32442
C          3.80075        3.41823       -1.20488
C          2.78481        3.45595       -0.25743
C          2.09901        2.27774        0.00310
C          2.41976        1.12180       -0.66331
C          3.42766        1.09847       -1.59573
C          4.14485        2.25435       -1.88227
H          4.35900        4.31194       -1.41066
H          1.32620        2.25363        0.75216
H          3.66164        0.16479       -2.07840
Pd        -0.12007       -0.08733        1.34376
C         -1.28741       -4.81706        0.67080
C         -2.48697       -4.86905       -0.29484
C         -2.16755       -5.88723       -1.40589
C         -3.73134       -5.32508        0.48655
H         -1.06970       -5.80658        1.07240
H         -0.39480       -4.46067        0.15783
H         -1.48855       -4.15790        1.51489
H         -1.92153       -6.86100       -0.98272
H         -3.01339       -6.02336       -2.07833
H         -1.31784       -5.55377       -2.00032
H         -3.56591       -6.29621        0.95271
H         -3.97536       -4.60977        1.27182
H         -4.59755       -5.41009       -0.16891
C         -4.84548       -3.06814       -4.70010
C         -5.12249       -2.05587       -3.57183
C         -5.20634       -0.64725       -4.19168
C         -6.47351       -2.38245       -2.91008
H         -4.84592       -4.09146       -4.32732
H         -5.60614       -3.00042       -5.47772
H         -3.87705       -2.88137       -5.16176
H         -4.25954       -0.36331       -4.65021
H         -5.97336       -0.61014       -4.96513
H         -5.46334        0.09890       -3.44015
H         -6.47284       -3.38784       -2.49018
H         -6.68558       -1.68375       -2.10148
H         -7.28758       -2.32087       -3.63207
C         -2.47003        5.52787        2.04678
C         -2.64521        4.27605        2.92171
C         -1.28944        3.88877        3.54909
C         -3.62276        4.59351        4.07112
H         -3.42484        5.84016        1.62415
H         -2.06731        6.35838        2.62631
H         -1.79044        5.33043        1.21885
H         -0.95507        4.64945        4.25424
H         -1.36824        2.94301        4.08493
H         -0.51237        3.78518        2.79430
H         -4.56247        4.99749        3.69644
H         -3.84005        3.69794        4.65299
H         -3.19835        5.33666        4.74610
C         -7.27476        2.78198        0.64174
C         -6.52304        1.52208        1.10953
C         -7.00059        1.12245        2.51727
C         -6.85044        0.37219        0.13613
H         -8.34656        2.59497        0.57743
H         -7.12341        3.61340        1.32903
H         -6.92689        3.09370       -0.34297
H         -8.06530        0.88971        2.51730
H         -6.46189        0.24317        2.87004
H         -6.83401        1.92581        3.23397
H         -6.36324       -0.55327        0.44278
H         -7.92357        0.18424        0.10543
H         -6.52845        0.61434       -0.87651
C          3.54685       -4.86295        4.21584
C          2.52904       -4.34456        3.18142
C          2.17558       -5.49029        2.21788
C          1.26430       -3.89041        3.93798
H          3.85280       -4.06705        4.89467
H          3.11420       -5.66333        4.81601
H          4.43543       -5.26424        3.72920
H          1.45054       -5.16488        1.47380
H          3.06286       -5.83546        1.68747
H          1.75049       -6.33768        2.75544
H          0.87620       -4.69235        4.56558
H          1.48556       -3.03670        4.57812
H          0.47035       -3.59614        3.25339
C          7.21970       -2.14071        2.71276
C          6.38952       -1.26231        1.75772
C          6.44548        0.19393        2.25765
C          7.00728       -1.34866        0.34953
H          8.25577       -1.80379        2.74535
H          6.82644       -2.09577        3.72818
H          7.22153       -3.18085        2.38740
H          5.91872        0.86640        1.58140
H          5.98328        0.28064        3.24073
H          7.47569        0.54071        2.33587
H          8.05312       -1.04236        0.36231
H          6.95812       -2.36883       -0.03061
H          6.48044       -0.70471       -0.35357
C          2.57860        4.44454        2.03648
C          2.42365        4.72336        0.52901
C          0.96764        5.11053        0.21945
C          3.33472        5.90827        0.15611
H          3.60276        4.15460        2.27017
H          2.33465        5.32904        2.62454
H          1.92355        3.63769        2.36185
H          0.84801        5.33734       -0.83930
H          0.28552        4.29856        0.46528
H          0.66708        5.98950        0.78932
H          3.06666        6.79636        0.72834
H          4.37939        5.68151        0.36837
H          3.24184        6.15728       -0.90085
C          5.11805        3.33536       -3.93296
C          5.33589        2.26088       -2.85106
C          5.51434        0.89617       -3.54491
C          6.61964        2.57504       -2.06051
H          5.93684        3.33488       -4.65228
H          4.19185        3.15545       -4.47713
H          5.06065        4.33230       -3.49806
H          6.35157        0.92376       -4.24220
H          5.71862        0.10964       -2.81884
H          4.62406        0.62144       -4.10901
H          6.78099        1.83383       -1.27792
H          7.49171        2.57182       -2.71415
H          6.56110        3.55380       -1.58562
H         -0.56184       -0.98571       -5.65508
H          2.49418        1.57531       -4.76274
H         -1.44226        0.00148       -4.48433
H         -2.01238       -1.61497       -4.87661
H          1.13926        0.75769       -5.53579
H          2.03682       -0.04345       -4.24322
