111
-148.55699731
P         -2.33304       -2.49843       -0.03981
P         -0.13085       -0.26493       -0.51794
C         -1.72501       -2.17864       -1.71402
C         -0.79469       -1.18373       -1.92035
C         -2.14949       -4.27854        0.41851
C         -1.04400       -4.45222        1.43724
C         -2.19692       -2.91509       -2.78126
H         -2.91481       -3.70065       -2.60893
C         -1.74406       -2.64020       -4.06021
H         -2.11286       -3.21300       -4.89537
C         -0.82414       -1.63005       -4.26757
H         -0.47490       -1.41295       -5.26360
C         -0.34791       -0.89903       -3.19382
H          0.37049       -0.10703       -3.33846
Pd        -1.37332       -0.90987        1.32530
Cl        -2.59621       -1.73014        3.02088
Cl        -0.43817        0.70472        2.57915
C         -3.55413       -4.65641        0.92565
C         -4.16783       -2.30403        0.12731
H         -0.93154       -5.49864        1.73082
H         -0.08496       -4.10332        1.04592
H         -1.25771       -3.87627        2.33979
H         -3.57474       -4.54613        2.01862
H         -3.75865       -5.72042        0.73241
H         -4.32473       -1.74033        1.05668
C         -4.65455       -3.75500        0.29674
C         -4.77019       -1.56660       -1.04992
H         -1.91620       -4.81517       -0.51048
H         -4.93562       -4.15205       -0.68832
H         -5.57552       -3.78158        0.89881
H         -5.84684       -1.42884       -0.92635
H         -4.31394       -0.58245       -1.17661
H         -4.61460       -2.11892       -1.97766
C         -0.93291        4.20472       -0.78058
C          0.37186        3.71229       -1.04102
C          0.58827        2.34776       -0.94600
C         -0.44450        1.48607       -0.68590
C         -1.72763        1.94508       -0.54494
C         -2.01202        3.29888       -0.61554
O         -1.15259        5.60200       -0.65098
C          1.55323        4.63200       -1.38824
H          1.57665        1.93740       -1.05887
H         -2.50719        1.22697       -0.35653
C         -3.46814        3.76378       -0.45913
C          4.29863       -1.07138        0.22140
C          3.54583       -0.29311        1.13645
C          2.19669       -0.11492        0.88622
C          1.61028       -0.60273       -0.25141
C          2.35640       -1.27011       -1.18781
C          3.71050       -1.49163       -0.99895
O          5.62827       -1.45685        0.53935
C          4.15719        0.33912        2.39658
H          1.56843        0.39782        1.59298
H          1.86231       -1.62427       -2.07433
C          4.51673       -2.19667       -2.10146
C          1.08127        5.86796       -2.17531
C          2.26027        5.06395       -0.09470
C          2.57517        3.89257       -2.28224
C         -4.44660        2.68297       -0.97294
C         -3.76081        4.01653        1.02789
C         -3.73514        5.03830       -1.27985
C         -0.98229        6.09561        0.67188
H          1.92591        6.48792       -2.47481
H          0.54480        5.56790       -3.07483
H          0.41409        6.48676       -1.58064
H          1.58590        5.60777        0.56203
H          2.62515        4.19523        0.45215
H          3.11183        5.70838       -0.31146
H          3.08241        3.09505       -1.74114
H          2.08545        3.45917       -3.15391
H          3.34522        4.57723       -2.63704
H         -4.44569        1.80320       -0.33124
H         -5.46793        3.06268       -0.99089
H         -4.18685        2.37295       -1.98482
H         -4.79371        4.33081        1.17511
H         -3.59634        3.11084        1.61136
H         -3.11320        4.79059        1.43183
H         -4.78235        5.33292       -1.21652
H         -3.13701        5.87299       -0.92310
H         -3.49083        4.87685       -2.32922
H         -0.19864        6.85293        0.68218
H         -1.90782        6.56100        1.01039
H         -0.71383        5.28359        1.34895
C          5.72161       -2.67855        1.26129
C          5.63360        0.71225        2.17164
C          3.41547        1.64542        2.76296
C          4.02867       -0.64253        3.57101
C          5.96414       -1.67379       -2.14735
C          4.50887       -3.71178       -1.84866
C          3.89656       -1.92698       -3.49155
H          6.04734        1.21778        3.04385
H          6.24205       -0.16849        1.98305
H          5.73449        1.37723        1.31450
H          3.92402        2.16496        3.57468
H          3.37464        2.31914        1.90790
H          2.39691        1.45270        3.09620
H          4.44577       -0.21680        4.48322
H          2.98230       -0.88268        3.75838
H          4.54999       -1.57439        3.36550
H          6.49733       -1.90112       -1.22753
H          6.51844       -2.12591       -2.96943
H          5.97748       -0.59284       -2.28297
H          4.96218       -3.95407       -0.89063
H          3.48890       -4.09544       -1.83944
H          5.06158       -4.24000       -2.62518
H          2.92689       -2.41049       -3.60124
H          4.53776       -2.31487       -4.28278
H          3.76908       -0.85768       -3.65866
H          4.73119       -3.11188        1.40615
H          6.34901       -3.37982        0.71130
H          6.18439       -2.49736        2.23117
