111
-148.55544722
P         -2.52832       -2.05601       -0.85378
P          0.18651       -0.39835       -0.48871
C         -1.39092       -1.83989       -2.25119
C         -0.20738       -1.15288       -2.08018
C         -3.34934       -3.71383       -0.86174
C         -2.79022       -4.60573        0.22517
C         -1.71906       -2.34528       -3.49282
H         -2.65529       -2.86194       -3.62724
C         -0.85407       -2.17062       -4.55938
H         -1.10993       -2.56595       -5.52887
C          0.33357       -1.48701       -4.38396
H          1.00578       -1.34829       -5.21468
C          0.65510       -0.97192       -3.14108
H          1.57069       -0.42108       -2.99110
Pd        -1.32007       -1.34919        0.97321
Cl        -3.08664       -1.96870        2.21913
Cl        -0.08295       -0.75636        2.75148
C         -4.83963       -3.35901       -0.69882
C         -4.00878       -0.95034       -0.94413
H         -1.71636       -4.76193        0.09719
H         -2.94017       -4.15802        1.20878
H         -3.27792       -5.58337        0.23005
H         -5.09756       -3.40593        0.36821
H         -5.47062       -4.11610       -1.18881
H         -4.12826       -0.51978        0.05919
C         -5.15409       -1.93553       -1.24247
C         -3.82324        0.14013       -1.97731
H         -3.16582       -4.15036       -1.85164
H         -5.30540       -1.98337       -2.32968
H         -6.10150       -1.55744       -0.82896
H         -3.64166       -0.28824       -2.96473
H         -4.70718        0.77807       -2.04878
H         -2.96820        0.77412       -1.73296
C         -1.20793        3.93791       -0.38425
C         -0.99539        3.30092       -1.63401
C         -0.54069        1.99278       -1.63597
C         -0.36601        1.30530       -0.46398
C         -0.67131        1.88324        0.73985
C         -1.13384        3.18449        0.81488
O         -1.46133        5.33449       -0.33407
C         -1.23144        4.01611       -2.97353
H         -0.31705        1.48866       -2.55939
H         -0.54499        1.29081        1.62941
C         -1.53565        3.75145        2.18533
C          4.51265       -0.85890        0.85631
C          3.77655        0.29907        1.21378
C          2.46371        0.39747        0.78587
C          1.90292       -0.56259       -0.01458
C          2.63903       -1.63706       -0.44106
C          3.96273       -1.79103       -0.06126
O          5.78136       -1.10434        1.44563
C          4.35710        1.41885        2.09124
H          1.84942        1.22607        1.09103
H          2.15898       -2.36338       -1.07381
C          4.77004       -2.97085       -0.62570
C         -1.60654        3.00239       -4.07875
C         -2.39780        5.01519       -2.86657
C          0.05324        4.74539       -3.39423
C         -2.08978        2.62966        3.09454
C         -0.30224        4.36766        2.86243
C         -2.64915        4.80518        2.04627
C         -0.29055        6.12965       -0.19590
H         -2.44783        2.38325       -3.76891
H         -1.89198        3.51822       -4.99528
H         -0.77178        2.34873       -4.32744
H         -3.30285        4.51319       -2.52603
H         -2.17314        5.81248       -2.16222
H         -2.60808        5.47701       -3.83092
H          0.34115        5.49225       -2.65839
H          0.87991        4.04243       -3.49462
H         -0.07954        5.24981       -4.35100
H         -2.49875        3.04427        4.01547
H         -2.88576        2.08071        2.59204
H         -1.31460        1.92070        3.38111
H          0.12416        5.16380        2.25655
H         -0.55873        4.78455        3.83597
H          0.47071        3.61440        3.01203
H         -2.30940        5.67018        1.48242
H         -3.51066        4.38606        1.52746
H         -2.97962        5.15765        3.02299
H         -0.23634        6.84343       -1.01783
H         -0.33449        6.68897        0.73836
H          0.60017        5.50004       -0.20092
C          5.72238       -1.85758        2.65050
C          3.70917        2.77833        1.74076
C          4.06657        1.10425        3.56671
C          5.87205        1.57403        1.86746
C          6.26119       -2.61088       -0.75783
C          4.59925       -4.19068        0.29208
C          4.27169       -3.34369       -2.04083
H          3.78307        2.97944        0.67236
H          2.65824        2.80946        2.02332
H          4.20561        3.59149        2.26982
H          4.45285        1.88837        4.21731
H          2.99349        1.02055        3.73780
H          4.52232        0.16347        3.86606
H          6.08765        1.75486        0.81495
H          6.26974        2.40903        2.44375
H          6.41190        0.68008        2.16915
H          6.70948       -2.41321        0.21261
H          6.82123       -3.42361       -1.21967
H          6.38776       -1.71983       -1.37183
H          4.95884       -3.98169        1.29671
H          3.54910       -4.47162        0.36801
H          5.15154       -5.04822       -0.09142
H          4.26171       -2.46922       -2.69102
H          3.26796       -3.76530       -2.01775
H          4.92158       -4.09112       -2.49535
H          4.68935       -2.11629        2.88655
H          6.31012       -2.76888        2.54125
H          6.14673       -1.27492        3.46792
