72
-98.09794160
Fe        -0.01678        2.79992       -0.00098
P          1.83840       -0.06908        0.02944
P         -1.83528       -0.08425       -0.02735
C          1.40591        1.57243        0.72225
C          0.41559        1.82846        1.75384
C          0.36088        3.26158        1.97989
C          1.33586        3.89136        1.10843
C          1.99471        2.84697        0.34257
C         -1.42657        1.56415       -0.71775
C         -2.03391        2.82971       -0.33737
C         -1.39685        3.88515       -1.10616
C         -0.40741        3.27202       -1.97291
C         -0.43657        1.83807       -1.74527
C          3.20828       -0.80298        1.03383
C          4.45209       -0.22425        0.33925
C          2.76096        0.14539       -1.56742
C          4.23871       -0.10606       -1.19417
C         -3.19601       -0.83457       -1.03173
C         -4.44656       -0.27053       -0.33713
C         -2.75924        0.11296        1.57061
C         -4.23495       -0.14956        1.19637
H         -0.17961        1.07662        2.27080
H         -0.28483        3.77287        2.69738
H          1.55450        4.96034        1.05605
H          2.79342        2.98996       -0.38827
H         -2.83604        2.95893        0.39222
H          0.17290        1.09627       -2.26057
Cl         1.56899       -3.09378       -0.39452
Cl        -1.52411       -3.12521        0.38397
Pd         0.00641       -1.51394       -0.00121
H          3.16563       -1.88917        0.89236
C          3.10385       -0.46388        2.51584
H          2.60359        1.18580       -1.87505
C          2.24590       -0.80560       -2.64192
H          5.33933       -0.83403        0.57050
H          4.65835        0.76952        0.76179
H          4.88198        0.67910       -1.61824
H          4.56760       -1.03873       -1.67201
H         -1.63411        4.95000       -1.05421
H          0.23012        3.79390       -2.69016
H          4.04976       -0.72167        3.01224
H          2.46280       -1.83671       -2.33344
H         -3.14016       -1.92016       -0.89015
C         -3.09582       -0.49392       -2.51365
H         -2.61067        1.15279        1.88459
C         -2.23535       -0.84072        2.63852
H         -5.32659       -0.89064       -0.56850
H         -4.66441        0.72071       -0.75985
H         -4.88431        0.63113        1.61941
H         -4.55738       -1.08422        1.67474
H         -4.03764       -0.76550       -3.01049
H         -1.14200       -0.77829        2.68118
C          1.94707       -1.17174        3.20091
H          2.05723       -2.25630        3.14363
H          1.86419       -0.90214        4.25616
H          1.00086       -0.92369        2.72205
C          2.83594       -0.52763       -4.01619
H          2.59912        0.48514       -4.34791
H          3.92363       -0.61671       -4.00787
H          2.45589       -1.21847       -4.77221
C         -1.92844       -1.18447       -3.19831
H         -2.02170       -2.27055       -3.13986
H         -1.84999       -0.91468       -4.25385
H         -0.98612       -0.92107       -2.71999
C         -2.82553       -0.57583        4.01532
H         -2.59688        0.43701        4.35251
H         -3.91242       -0.67422        4.00826
H         -2.43825       -1.26769        4.76673
H          3.00703        0.62432        2.62441
H          1.15218       -0.75116       -2.68567
H         -3.01488        0.59560       -2.62211
H         -2.44464       -1.87156        2.32381
