111
-148.55508081
P         -2.46351       -2.11396       -1.09991
P          0.12398       -0.37796       -0.54493
C         -1.33964       -1.71207       -2.46508
C         -0.19425       -0.98937       -2.20987
C         -3.17600       -3.81387       -1.26492
C         -2.56171       -4.76617       -0.26222
C         -1.62919       -2.10928       -3.75476
H         -2.53624       -2.65646       -3.95294
C         -0.76214       -1.78778       -4.78497
H         -0.98746       -2.09697       -5.79257
C          0.38896       -1.06887       -4.52462
H          1.06219       -0.81664       -5.32731
C          0.67215       -0.66456       -3.23225
H          1.55781       -0.08888       -3.01252
Pd        -1.32140       -1.55339        0.82306
Cl        -3.03982       -2.37638        2.00631
Cl        -0.05921       -0.96876        2.58876
C         -4.68627       -3.57259       -1.08156
C         -4.01285       -1.10342       -1.10487
H         -2.98353       -5.76977       -0.35416
H         -1.47952       -4.83867       -0.39494
H         -2.74373       -4.42493        0.75795
H         -4.94204       -3.73118       -0.02484
H         -5.26591       -4.32210       -1.64161
H         -4.16271       -0.77205       -0.06852
C         -5.09133       -2.12964       -1.49882
C         -3.89475        0.08322       -2.03649
H         -2.96323       -4.14322       -2.28990
H         -5.23677       -2.08988       -2.58716
H         -6.06219       -1.85182       -1.06095
H         -3.68140       -0.24369       -3.05589
H         -4.81815        0.66652       -2.06047
H         -3.08362        0.74637       -1.72831
C         -1.19488        3.95214       -0.06467
C         -1.13236        3.38626       -1.36446
C         -0.72039        2.06988       -1.48827
C         -0.45481        1.30815       -0.38108
C         -0.62248        1.81774        0.87864
C         -1.02832        3.12534        1.07546
O         -1.38213        5.35114        0.09300
C         -1.46493        4.18922       -2.63170
H         -0.58718        1.62328       -2.45760
H         -0.41806        1.16915        1.71277
C         -1.24328        3.62727        2.51118
C          4.42761       -0.71233        0.89312
C          3.85566        0.56466        0.66168
C          2.54405        0.62332        0.22314
C          1.83545       -0.51736       -0.04932
C          2.41498       -1.75214        0.07470
C          3.72458       -1.88339        0.50851
O          5.68585       -0.81836        1.54346
C          4.61151        1.87713        0.92180
H          2.04639        1.57043        0.10793
H          1.81863       -2.61845       -0.15540
C          4.34249       -3.28739        0.60011
C         -0.19017        4.87343       -3.14790
C         -2.01012        3.26125       -3.74122
C         -2.55513        5.23952       -2.35154
C         -1.73186        2.47604        3.42075
C          0.08692        4.15994        3.06531
C         -2.32015        4.72593        2.56161
C         -0.17026        6.09428        0.13671
H         -0.39209        5.44147       -4.05566
H          0.21736        5.55756       -2.40749
H          0.57828        4.13488       -3.37529
H         -1.24777        2.57438       -4.10566
H         -2.85444        2.67663       -3.37774
H         -2.35161        3.84255       -4.59742
H         -3.44694        4.76658       -1.94157
H         -2.21415        5.98429       -1.63668
H         -2.83796        5.76396       -3.26391
H         -2.01097        2.85184        4.40473
H         -2.60401        1.98495        2.98999
H         -0.95832        1.72520        3.57401
H         -0.03111        4.51802        4.08765
H          0.84376        3.37591        3.06750
H          0.46482        4.98205        2.46204
H         -2.01375        5.60837        2.00568
H         -3.25402        4.36727        2.13006
H         -2.51709        5.03495        3.58785
H         -0.17120        6.84084       -0.65736
H         -0.09250        6.61346        1.09175
H          0.68751        5.43196        0.01243
C          5.59987       -0.90027        2.96074
C          6.11738        1.71331        0.64830
C          4.10177        2.99648       -0.01553
C          4.37913        2.31701        2.37535
C          5.86053       -3.24560        0.34737
C          4.05093       -3.87891        1.98776
C          3.73516       -4.22200       -0.47085
H          6.56820        0.99333        1.32662
H          6.28643        1.36383       -0.36967
H          6.64380        2.65910        0.77424
H          4.72179        3.88817        0.07438
H          4.12916        2.67356       -1.05592
H          3.08171        3.29247        0.22567
H          3.31634        2.46143        2.56798
H          4.74288        1.57047        3.07696
H          4.89137        3.25538        2.58631
H          6.37524       -2.66965        1.11217
H          6.28581       -4.24891        0.34924
H          6.07627       -2.78741       -0.61724
H          2.97695       -3.93750        2.16311
H          4.46393       -4.88310        2.07936
H          4.48027       -3.26572        2.77623
H          2.68706       -4.43872       -0.27001
H          4.25975       -5.17696       -0.49300
H          3.81027       -3.77582       -1.46218
H          6.14912       -0.07260        3.40914
H          4.55780       -0.86225        3.28089
H          6.05158       -1.83161        3.30180
