58
-89.86622815
P          1.58349        0.10804        0.77501
C          1.56798        1.89761        0.60864
C          1.59053        2.42225       -0.66355
C          1.56287        3.79224       -0.84631
C          1.51965        4.62861        0.25146
C          1.51063        4.09888        1.52698
C          1.53732        2.72762        1.70617
H          1.53334        2.30520        2.69746
H          1.63109        1.74920       -1.50586
C          3.19955       -0.55209        0.35673
C          4.29877        0.27280        0.43330
C          5.55235       -0.21962        0.11718
C          5.69484       -1.53650       -0.27321
C          4.58914       -2.36045       -0.34786
C          3.33712       -1.86549       -0.02995
H          2.46474       -2.49509       -0.09952
H          4.17005        1.29985        0.73594
C          1.14567       -0.45892        2.47093
C          0.47082       -1.82461        2.43996
C         -1.03743       -1.76832        2.24765
P         -1.59788       -0.82613        0.76245
C         -1.80036        0.94052        1.06756
C         -1.75973        1.48286        2.33167
C         -1.87549        2.85084        2.49663
C         -2.03543        3.66884        1.39588
C         -2.08780        3.12168        0.13002
C         -1.97257        1.75358       -0.02997
H         -2.00671        1.30686       -1.01146
H         -1.64901        0.84196        3.18983
C         -3.13167       -1.54648        0.17138
C         -3.12595       -2.83453       -0.31220
C         -4.30034       -3.39758       -0.77955
C         -5.47093       -2.66505       -0.75813
C         -5.47088       -1.37231       -0.27227
C         -4.29519       -0.81192        0.19347
H         -4.27809        0.19788        0.57034
H         -2.20097       -3.38932       -0.33351
Pd         0.06917       -0.55339       -0.84526
Cl         1.67540       -0.54862       -2.40896
Cl        -1.60363       -0.87122       -2.31541
H         -1.45386       -2.77429        2.15306
H         -1.52472       -1.31848        3.11391
H          0.92158       -2.42442        1.63744
H          0.69465       -2.37450        3.36762
H          2.08413       -0.47927        3.03104
H          0.50661        0.28271        2.94947
H          1.57394        4.20376       -1.84210
H          1.47886        4.75277        2.38296
H          6.41442        0.42455        0.17318
H          4.69944       -3.38647       -0.65832
H         -1.83787        3.27859        3.48506
H         -2.21095        3.75729       -0.73132
H         -4.29913       -4.40420       -1.16419
H         -6.38341       -0.79926       -0.25895
H          1.49504        5.69716        0.11269
H          6.67022       -1.92111       -0.52306
H         -2.11872        4.73564        1.52499
H         -6.38556       -3.10193       -1.12458
