111
-148.55844978
P         -2.58145       -1.83376       -1.17623
P          0.19467       -0.49131       -0.44028
C         -1.37037       -1.49572       -2.48220
C         -0.14259       -0.96509       -2.14883
C         -3.52900       -3.39079       -1.49397
C         -3.03659       -4.52813       -0.62598
C         -1.67052       -1.75951       -3.80333
H         -2.63903       -2.15528       -4.06143
C         -0.73324       -1.49855       -4.78803
H         -0.96685       -1.70423       -5.81991
C          0.49924       -0.97292       -4.45072
H          1.22787       -0.76740       -5.21756
C          0.79342       -0.70064       -3.12692
H          1.74383       -0.27330       -2.84884
Pd        -1.41561       -1.61114        0.79719
Cl        -3.19101       -2.41650        1.90531
Cl        -0.16704       -1.30373        2.63831
C         -4.98369       -2.95989       -1.22984
C         -3.96834       -0.61054       -1.09504
H         -1.97904       -4.73548       -0.80594
H         -3.14665       -4.28511        0.43165
H         -3.59950       -5.44560       -0.81284
H         -5.22676       -3.16744       -0.17852
H         -5.67986       -3.57385       -1.82142
H         -4.05249       -0.31765       -0.03980
C         -5.19186       -1.44538       -1.51887
C         -3.69659        0.59585       -1.96747
H         -3.39047       -3.63024       -2.55582
H         -5.36417       -1.29891       -2.59404
H         -6.10014       -1.07242       -1.02160
H         -3.54449        0.29653       -3.00609
H         -4.52904        1.30285       -1.94296
H         -2.79748        1.12337       -1.64358
C         -1.21304        3.80002        0.16795
C         -0.83795        3.35793       -1.12650
C         -0.39058        2.05580       -1.27193
C         -0.36182        1.19574       -0.20619
C         -0.80132        1.59334        1.02796
C         -1.28377        2.87265        1.23882
O         -1.48329        5.17543        0.39672
C         -0.88433        4.27596       -2.35755
H         -0.05549        1.69257       -2.22736
H         -0.75587        0.88039        1.83254
C         -1.86956        3.22589        2.61470
C          4.59193       -0.74359        0.70690
C          4.09772        0.39504        0.02064
C          2.74957        0.43555       -0.29319
C          1.92657       -0.62578       -0.02014
C          2.42022       -1.77156        0.54508
C          3.75745       -1.87590        0.89224
O          5.90915       -0.73562        1.23831
C          4.98591        1.59147       -0.35581
H          2.31590        1.31108       -0.74526
H          1.73580       -2.58065        0.73307
C          4.26931       -3.18956        1.50370
C         -1.09727        3.45372       -3.64933
C         -2.05540        5.27021       -2.25977
C          0.44694        5.03357       -2.47483
C         -2.96781        4.29768        2.49306
C         -2.52660        1.98173        3.25742
C         -0.74413        3.71954        3.53585
C         -0.35039        5.92517        0.81698
H         -1.25412        4.11117       -4.50416
H         -0.23280        2.83258       -3.87943
H         -1.97070        2.80843       -3.56021
H         -2.99880        4.74023       -2.13238
H         -1.93402        5.94353       -1.41474
H         -2.12760        5.88053       -3.15964
H          1.27958        4.33678       -2.56946
H          0.45022        5.68471       -3.34859
H          0.62870        5.64885       -1.59702
H         -3.42737        4.49962        3.46025
H         -2.56782        5.23577        2.11684
H         -3.74902        3.96965        1.80810
H         -3.05878        2.25214        4.16898
H         -3.24284        1.52520        2.57467
H         -1.78853        1.22925        3.53054
H         -1.12944        3.96784        4.52441
H          0.02031        2.95196        3.65438
H         -0.26242        4.60597        3.12988
H         -0.18393        6.75144        0.12595
H         -0.53218        6.34149        1.80756
H          0.53649        5.29081        0.84624
C          5.99701       -0.22533        2.56292
C          6.42587        1.13968       -0.65930
C          4.45404        2.28566       -1.63103
C          4.97959        2.61127        0.79313
C          5.74248       -3.43957        1.13308
C          4.10720       -3.13303        3.03043
C          3.46126       -4.39347        0.96819
H          6.90016        0.70807        0.21846
H          6.43356        0.38687       -1.44684
H          7.03934        1.97893       -0.98609
H          5.15074        3.05009       -1.97438
H          4.32282        1.56572       -2.43848
H          3.50025        2.78051       -1.45360
H          5.36771        2.17519        1.71033
H          5.59116        3.47927        0.54813
H          3.96616        2.95804        0.99436
H          6.39232       -2.67325        1.54791
H          6.08436       -4.40186        1.51333
H          5.87156       -3.43692        0.05128
H          4.44712       -4.05860        3.49423
H          4.67908       -2.31306        3.45780
H          3.06211       -2.98310        3.30060
H          3.44605       -4.39641       -0.12139
H          2.43314       -4.38062        1.32681
H          3.90267       -5.33327        1.29918
H          5.01059        0.06983        2.92293
H          6.41150       -0.98789        3.22208
H          6.66376        0.63661        2.57964
