72
-108.40197999
Cl         1.70224       -0.92352        2.63924
Cl        -0.91828        0.74999        2.81221
P         -1.11986        1.16954       -0.27816
P          2.28124       -0.14359       -0.35260
C          3.28166        1.43959       -0.04154
C          3.60643        1.53193        1.45043
C          4.56306        1.41167       -0.86665
C          3.34028       -1.71271       -0.16905
C          4.17040       -1.94567       -1.43689
C          1.44661       -0.35783       -2.03454
C          1.50846        0.86794       -2.92035
C         -1.14055       -0.16625       -1.50755
C          0.02709       -0.90628       -1.98242
C         -0.46993       -1.98042       -2.84535
C         -1.91590       -1.88699       -2.91716
C         -2.32653       -0.77995       -2.07360
C          2.45081        2.66065       -0.41674
H          2.69933        1.51740        2.05490
H          4.24377        0.71818        1.78575
H          5.10127        2.35613       -0.77091
H          4.35191        1.25761       -1.92434
C          4.27588       -1.64364        1.03390
H          4.70258       -1.04756       -1.74435
H          3.55759       -2.27903       -2.27339
H          2.05071       -1.13658       -2.50963
H          0.90076        1.66985       -2.50580
H          1.10894        0.65340       -3.91387
H          2.52768        1.23219       -3.04958
H          0.15451       -2.66079       -3.42785
H         -2.57659       -2.53144       -3.50139
Pd         0.49119        0.22102        1.13042
H         -3.35070       -0.45428       -1.87763
C          2.35751       -2.85924        0.01464
H          4.91332       -2.72677       -1.26706
H          3.73615       -1.39529        1.94554
H          4.75803       -2.60862        1.19696
H          5.07023       -0.91482        0.88405
H          1.83788       -2.76802        0.96729
H          1.61721       -2.87245       -0.78654
H          2.87406       -3.82118        0.01222
H          4.13217        2.46225        1.67155
H          5.23663        0.62347       -0.53480
H          1.48342        2.64159        0.08251
H          2.95520        3.57892       -0.11179
H          2.28902        2.73434       -1.48912
C         -2.75582        1.28218        0.47005
C         -3.14458        2.35060        1.23760
C         -4.45323        2.09854        1.65218
C         -4.80779        0.88498        1.11458
O         -3.77454        0.37348        0.38298
H         -2.53733        3.21086        1.47232
H         -5.06384        2.73101        2.27566
H         -5.76287        0.39083        1.24341
C         -0.79021        2.78441       -0.99923
C         -1.17094        3.12076       -2.27426
C         -0.77117        4.44187       -2.48261
C         -0.16796        4.85700       -1.32026
O         -0.17353        3.84791       -0.39951
H         -1.68579        2.47756       -2.97054
H         -0.91303        5.02383       -3.37859
H          0.25518        5.83797       -1.14285
Fe        -1.29007       -2.11608       -0.98176
C         -2.97452       -2.82665       -0.05852
C         -2.16879       -2.03640        0.85214
C         -0.86619       -2.65739        0.95890
C         -0.84671       -3.81166        0.08025
C         -2.15129       -3.91817       -0.54769
H         -4.01522       -2.63031       -0.32651
H         -2.49219       -1.14038        1.38542
H         -0.06591       -2.32159        1.62054
H         -0.02189       -4.51789       -0.03824
H         -2.46872       -4.70105       -1.24044
