87
-129.18553122
P         -1.53239       -0.28194       -0.37320
P          1.69460        0.36550        0.08712
C         -1.17980        0.96984       -1.61282
C          1.54901       -0.71091       -1.36122
C         -0.12400        0.77816       -2.49482
C          0.14423        1.77072       -3.45884
C         -0.65982        2.89763       -3.50806
C         -1.70593        3.06567       -2.62537
C         -1.96276        2.09630       -1.67621
C          2.27754       -1.87583       -1.30550
C          2.16710       -2.82306       -2.30417
C          1.30448       -2.60538       -3.35554
C          0.55102       -1.44695       -3.43072
C          0.68438       -0.46786       -2.42702
Cl         1.15091        0.10315        3.24709
Cl        -1.57912       -1.62712        2.54080
H         -2.31823        3.95124       -2.67272
H         -2.78130        2.21653       -0.98632
H          2.93397       -2.05103       -0.46908
H          2.74213       -3.73311       -2.25327
H         -0.45234        3.65397       -4.24591
H          1.20055       -3.34721       -4.12920
C         -2.28109       -4.27558       -2.40068
C         -1.37929       -4.21008       -1.34735
C         -1.17430       -2.98443       -0.72563
C         -1.85563       -1.86636       -1.14658
C         -2.75323       -1.94007       -2.18568
C         -2.96963       -3.15213       -2.81474
H         -2.43738       -5.21755       -2.89817
C         -0.60639       -5.40910       -0.92445
H         -0.46925       -2.90646        0.08467
H         -3.26674       -1.04773       -2.50805
H         -3.66751       -3.21687       -3.63338
C         -5.10066        1.04814        2.13106
C         -5.19123       -0.09834        1.36654
C         -4.11403       -0.50442        0.60194
C         -2.95837        0.24044        0.60229
C         -2.86537        1.38096        1.36595
C         -3.93398        1.79998        2.14806
H         -5.93919        1.36677        2.72650
H         -6.09919       -0.67890        1.36863
H         -4.16686       -1.40389        0.01095
H         -1.95566        1.95615        1.35445
C         -3.82858        3.04315        2.95933
C          5.69489       -0.32715        2.15018
C          5.50775        0.79026        1.36085
C          4.29106        0.99916        0.73887
C          3.27103        0.09271        0.91224
C          3.45691       -1.02254        1.69629
C          4.67495       -1.25230        2.32431
H          6.63835       -0.48711        2.64374
H          6.30744        1.50120        1.23233
H          4.12950        1.86971        0.12436
H          2.64346       -1.71409        1.84199
C          4.85583       -2.43917        3.20363
C          0.91419        4.79676       -0.54447
C          1.76050        4.12689       -1.40650
C          2.01629        2.78179       -1.21606
C          1.42020        2.12057       -0.16859
C          0.60675        2.79357        0.71398
C          0.33408        4.14390        0.53451
H          0.69970        5.84001       -0.70203
H          2.21041        4.64796       -2.23561
H          2.66013        2.23850       -1.88916
H          0.20760        2.27357        1.56802
C         -0.59293        4.85773        1.45382
Pd        -0.04329       -0.43193        1.42831
C          1.27459        1.63841       -4.41932
C         -0.39160       -1.27132       -4.57083
H          1.85074        2.56341       -4.47114
H          1.95851        0.84149       -4.12519
H          0.90839        1.41562       -5.42222
H         -0.94531       -2.19175       -4.76141
H         -1.12195       -0.48699       -4.36960
H          0.14531       -1.00811       -5.48291
H          0.32987       -5.48076       -1.47984
H         -0.36439       -5.36485        0.13844
H         -1.17307       -6.32500       -1.09772
H         -3.97603        3.92648        2.33638
H         -4.57592        3.06247        3.75371
H         -2.84622        3.12026        3.42767
H          5.90878       -2.71057        3.29117
H          4.47448       -2.23803        4.20569
H          4.32179       -3.30445        2.80818
H         -0.56858        4.42111        2.45331
H         -0.32365        5.91085        1.54551
H         -1.61879        4.80250        1.08673
