72
-98.09959094
Fe        -0.03027        2.83312       -0.10059
P          1.83030       -0.02802        0.00777
P         -1.80487       -0.07970       -0.09983
C          1.39723        1.63840        0.64887
C          0.42354        1.93846        1.68416
C          0.37618        3.37907        1.85721
C          1.34047        3.97149        0.94930
C          1.98779        2.89668        0.21711
C         -1.39222        1.54862       -0.82570
C         -2.03152        2.81819       -0.52076
C         -1.37210        3.85181       -1.30087
C         -0.34105        3.22032       -2.10425
C         -0.35844        1.79701       -1.81601
C          2.97379        0.20438       -1.44466
C          4.35142        0.42721       -0.77437
C          3.11050       -0.74868        1.14313
C          4.35119        0.06705        0.74147
C         -3.18761       -0.83710       -1.07311
C         -4.42872       -0.36954       -0.29511
C         -2.68212        0.12117        1.52532
C         -4.14249       -0.27500        1.22574
H         -0.15221        1.20998        2.25212
H         -0.25574        3.91920        2.56574
H          1.56088        5.03697        0.85275
H          2.76785        3.01333       -0.53768
H         -2.86507        2.96259        0.16983
H          0.30107        1.04510       -2.24972
Cl         1.60359       -3.10829       -0.32130
Cl        -1.50919       -3.12215        0.36550
Pd         0.02603       -1.52279       -0.04534
H          2.63944        1.10268       -1.97711
C          2.99718       -0.98704       -2.40075
H          3.24269       -1.79926        0.85953
C          2.75414       -0.64536        2.62503
H          4.68796        1.46435       -0.92028
H          5.09903       -0.18752       -1.29510
H          5.27125       -0.46955        1.02093
H          4.36045        0.98959        1.34058
H         -1.62469        4.91447       -1.30086
H          0.32411        3.72394       -2.80933
H          3.84846       -0.87419       -3.08661
H          3.67604       -0.71917        3.21862
H         -3.07403       -1.92451       -0.99344
C         -3.19620       -0.41815       -2.53897
H         -2.60842        1.18452        1.78202
C         -2.05228       -0.73315        2.62018
H         -5.28064       -1.03737       -0.49650
H         -4.73078        0.61659       -0.67537
H         -4.83826        0.42496        1.71185
H         -4.34355       -1.25129        1.68715
H         -4.14340       -0.73585       -2.99669
H         -0.96891       -0.57288        2.63346
C          1.72336       -1.16994       -3.20608
H          0.87426       -1.36891       -2.55483
H          1.49097       -0.27884       -3.79203
H          1.79656       -2.00929       -3.90147
C          1.76857       -1.70863        3.08270
H          2.17909       -2.71102        2.94722
H          1.50509       -1.59979        4.13718
H          0.84492       -1.66841        2.50824
C         -2.02576       -0.98071       -3.32495
H         -2.01086       -2.07164       -3.28837
H         -2.05326       -0.68404       -4.37588
H         -1.08089       -0.63236       -2.91159
C         -2.63380       -0.45931        3.99877
H         -2.49051        0.58425        4.28556
H         -3.70719       -0.65498        4.02391
H         -2.16937       -1.07881        4.76939
H          3.21405       -1.89399       -1.82186
H          2.36290        0.35977        2.82725
H         -3.20194        0.67835       -2.59414
H         -2.17602       -1.79168        2.35667
