171
-217.84828775
P         -1.63880        0.43826       -0.32975
P          1.63198       -0.29273       -0.23150
C         -0.85369        1.49406       -1.55753
C          0.97831       -1.16488       -1.65733
C          0.01243        0.97633       -2.51525
C          0.68009        1.86812       -3.37660
C          0.43727        3.22708       -3.26738
C         -0.43976        3.71912       -2.32461
C         -1.07721        2.84657       -1.46507
C          1.20764       -2.51523       -1.75347
C          0.70038       -3.22988       -2.82123
C         -0.04549       -2.58261       -3.78376
C         -0.29114       -1.22175       -3.70244
C          0.23915       -0.49065       -2.62218
Cl         1.50858        0.51887        2.89886
Cl        -1.67042       -0.30564        2.85872
C         -1.08330       -0.55076       -4.76964
C          1.64767        1.38417       -4.39941
H         -0.62260        4.77882       -2.25282
H         -1.75250        3.22417       -0.71456
H          1.78795       -3.01062       -0.99136
H          0.88938       -4.28763       -2.90348
H          0.95043        3.90334       -3.93024
H         -0.44631       -3.13682       -4.61564
C         -3.43802       -3.44341       -1.79802
C         -2.56440       -3.47113       -0.71786
C         -2.00550       -2.26866       -0.30741
C         -2.30765       -1.09908       -0.95936
C         -3.17586       -1.08643       -2.02333
C         -3.76552       -2.26683       -2.46137
H         -3.89476       -4.35786       -2.12652
H         -1.34579       -2.23916        0.54276
H         -3.39835       -0.14521       -2.49646
C         -4.85833        2.64620        1.97547
C         -3.53139        3.00354        2.17943
C         -2.55819        2.32962        1.45250
C         -2.90966        1.33856        0.56956
C         -4.22611        0.99581        0.38472
C         -5.23244        1.64859        1.08440
H         -5.62256        3.15092        2.53749
H         -1.51461        2.55630        1.58751
H         -4.46136        0.20209       -0.30130
C          4.23041       -3.07825        2.23629
C          2.84982       -3.17647        2.35312
C          2.07193       -2.33295        1.57036
C          2.65917       -1.40248        0.74822
C          4.02602       -1.30151        0.66849
C          4.84290       -2.14698        1.40785
H          4.84848       -3.74549        2.80806
H          0.99831       -2.38401        1.61229
H          4.45244       -0.55103        0.02819
C          3.96964        3.42131       -1.31949
C          2.92773        3.52568       -0.40676
C          2.22891        2.36910       -0.08670
C          2.54656        1.17674       -0.68712
C          3.56123        1.09487       -1.60922
C          4.30384        2.22316       -1.93870
H          4.55169        4.29704       -1.53933
H          1.43576        2.38649        0.64015
H          3.76837        0.14199       -2.06576
Pd        -0.05543        0.11122        1.34244
C         -0.71949       -5.03572       -0.06346
C         -2.22859       -4.75680        0.05044
C         -2.99165       -5.97356       -0.50700
C         -2.61767       -4.57533        1.53014
H         -0.43922       -5.91634        0.51410
H         -0.44047       -5.21189       -1.10145
H         -0.13313       -4.19330        0.29900
H         -2.74531       -6.87422        0.05527
H         -4.06927       -5.82581       -0.43836
H         -2.73248       -6.15527       -1.54989
H         -2.08907       -3.73722        1.98168
H         -3.68581       -4.38130        1.62484
H         -2.38388       -5.46900        2.10842
C         -6.14763       -2.78154       -3.03739
C         -4.79717       -2.29796       -3.59821
C         -4.32107       -3.26265       -4.70033
C         -5.00338       -0.90285       -4.21989
H         -6.49294       -2.12114       -2.24236
H         -6.90984       -2.79953       -3.81617
H         -6.06780       -3.78675       -2.62511
H         -5.02274       -3.27810       -5.53414
H         -3.34752       -2.96229       -5.08494
H         -4.23024       -4.28102       -4.32467
H         -5.37624       -0.19479       -3.48014
H         -4.07373       -0.51275       -4.63162
H         -5.73092       -0.94461       -5.03036
C         -3.62673        3.60467        4.60772
C         -3.17720        4.08025        3.21436
C         -3.89395        5.39425        2.85328
C         -1.66037        4.34922        3.25658
H         -3.14131        2.66363        4.86599
H         -3.37176        4.33826        5.37227
H         -4.70385        3.44553        4.64269
H         -3.60583        5.72772        1.85645
H         -4.97639        5.27312        2.86608
H         -3.63948        6.18392        3.56004
H         -1.10895        3.45129        3.53512
H         -1.30005        4.69168        2.28726
H         -1.42351        5.12100        3.98871
C         -6.90616        0.16742       -0.13303
C         -6.71361        1.28279        0.91412
C         -7.49565        2.52554        0.45096
C         -7.27079        0.78838        2.26139
H         -7.96193       -0.07720       -0.24874
H         -6.53050        0.47664       -1.10820
H         -6.38796       -0.74412        0.16442
H         -8.54909        2.28986        0.30069
H         -7.43558        3.32825        1.18494
H         -7.09627        2.90220       -0.49056
H         -6.71231       -0.07907        2.61267
H         -7.20238        1.56162        3.02567
H         -8.31823        0.50171        2.16921
C          0.71828       -3.93936        3.51104
C          2.22536       -4.19789        3.31456
C          2.90440       -4.09835        4.69476
C          2.42030       -5.61040        2.73870
H          0.17052       -4.08601        2.58265
H          0.29913       -4.62482        4.24737
H          0.53837       -2.92278        3.86077
H          3.96043       -4.35900        4.64305
H          2.82613       -3.08493        5.08800
H          2.43435       -4.77421        5.40898
H          1.97876       -6.36340        3.39125
H          1.95155       -5.69476        1.75847
H          3.47868       -5.84268        2.62340
C          6.84465       -0.95939        0.37910
C          6.37467       -2.07086        1.33825
C          6.92803       -3.41636        0.83476
C          6.93263       -1.76993        2.74145
H          7.93298       -0.91418        0.34179
H          6.48764       -1.13967       -0.63460
H          6.48494        0.01634        0.70524
H          6.66425       -4.23033        1.50902
H          6.52513       -3.65349       -0.14977
H          8.01472       -3.38673        0.75686
H          8.01913       -1.68709        2.71992
H          6.52951       -0.83149        3.12170
H          6.67247       -2.55644        3.44879
C          2.41297        5.94627       -0.84442
C          2.60605        4.87614        0.24686
C          3.77077        5.27713        1.16847
C          1.31393        4.80335        1.08414
H          1.62324        5.65302       -1.53507
H          2.13794        6.90509       -0.40529
H          3.32382        6.09668       -1.42223
H          3.92601        4.52410        1.94093
H          4.69941        5.37649        0.60728
H          3.57092        6.22947        1.65923
H          1.06957        5.77866        1.50473
H          0.47114        4.48470        0.47124
H          1.42098        4.10610        1.91477
C          5.39780        3.26633       -3.95752
C          5.50904        2.16140       -2.88878
C          5.59619        0.80011       -3.60669
C          6.79565        2.36899       -2.06989
H          6.23028        3.21221       -4.65892
H          4.47451        3.16760       -4.52643
H          5.41032        4.25895       -3.50972
H          6.43283        0.78426       -4.30505
H          5.74917       -0.01158       -2.89611
H          4.68797        0.59592       -4.17289
H          6.89314        1.60028       -1.30400
H          7.67761        2.32352       -2.70853
H          6.79113        3.33778       -1.57123
H         -0.44416       -0.25973       -5.60408
H          1.91771        0.34024       -4.23533
H         -1.57645        0.34629       -4.39252
H         -1.85498       -1.21384       -5.16063
H          2.56631        1.96951       -4.36560
H          1.23178        1.47380       -5.40389
