105
-153.07223879
Cl        -0.76222        2.09183       -2.86871
Pd         0.11020        1.49098       -0.88695
P          1.34443        0.69866        0.92290
N          0.71829       -0.60054        1.92642
C          0.06443       -1.79826        1.67422
C         -0.10979       -2.34756        0.37989
C         -0.89150       -3.51063        0.21976
C         -1.06738       -4.07710       -1.17008
C         -1.67430       -5.48839       -1.21712
C         -2.82607       -5.62752       -0.21746
C         -2.33548       -5.35710        1.21262
C         -1.47122       -4.12754        1.33044
C         -1.23849       -3.60404        2.59520
C         -0.48729       -2.47029        2.76457
H         -0.34512       -2.06130        3.74979
H         -1.67554       -4.09203        3.44997
H         -3.18927       -5.25712        1.89513
H         -3.61665       -4.91113       -0.47361
H         -2.01090       -5.73471       -2.23406
H         -1.69676       -3.38688       -1.74399
C          0.67690       -1.86971       -0.78278
C          0.02308       -1.25973       -1.88762
C          0.75787       -1.03820       -3.05591
C          2.07306       -1.41372       -3.14627
C          2.71415       -2.04949       -2.09031
C          4.12722       -2.53266       -2.28398
C          4.45528       -3.74899       -1.40745
C          4.11032       -3.45674        0.05579
C          2.62827       -3.07690        0.22989
C          2.01839       -2.27962       -0.90229
H          2.03402       -3.98958        0.35845
H          4.74281       -2.63604        0.41202
H          5.51074       -4.03772       -1.51331
H          4.81737       -1.71332       -2.05550
H          2.62063       -1.23243       -4.05557
H          0.27702       -0.54956       -3.88501
N         -1.31879       -0.85853       -1.84161
P         -1.84196        0.19090       -0.52149
C         -2.75868       -0.68481        0.74285
C         -3.59273       -1.70355        0.34969
C         -4.36139       -2.36392        1.29152
C         -4.29669       -2.00442        2.63091
C         -3.47009       -0.95197        3.00174
C         -2.70446       -0.29102        2.05859
H         -2.05593        0.51857        2.34726
H         -3.42556       -0.65666        4.03610
C         -5.12321       -2.71233        3.64684
H         -5.01423       -3.16544        0.99116
H         -3.63475       -1.97852       -0.69245
C         -2.97208        1.45416       -1.11856
C         -2.96943        2.70504       -0.54780
C         -3.84519        3.67103       -1.00826
C         -4.72876        3.38942       -2.04140
C         -4.73015        2.11369       -2.58925
C         -3.85230        1.14891       -2.12861
H         -3.85515        0.15666       -2.55047
H         -5.42244        1.88052       -3.38011
C         -5.68521        4.42369       -2.52402
H         -3.84526        4.65340       -0.56773
H         -2.27971        2.92558        0.25090
H         -1.65025       -0.39633       -2.67859
H          0.93278       -0.37216        2.88961
C          1.28900        2.16756        1.95825
C          2.43831        2.78606        2.38950
C          2.35542        3.92470        3.16940
C          1.12033        4.44926        3.52610
C         -0.02906        3.81765        3.07090
C          0.05747        2.67847        2.29155
H         -0.83169        2.19191        1.92674
H         -0.99210        4.22626        3.32539
C          1.03091        5.69283        4.34031
H          3.25288        4.41805        3.50159
H          3.39704        2.38480        2.10586
C          3.06818        0.40289        0.52664
C          3.60446        0.78925       -0.67857
C          4.95114        0.60014       -0.92573
C          5.77175        0.02470        0.03468
C          5.21879       -0.33358        1.25646
C          3.86894       -0.14944        1.49836
H          3.43523       -0.42740        2.44606
H          5.85071       -0.76103        2.01616
C          7.22474       -0.16930       -0.22550
H          5.37461        0.90535       -1.86737
H          2.97324        1.25680       -1.41566
Cl         1.61727        3.16388       -0.90227
H         -1.76665       -6.22028        1.57828
H         -0.89784       -6.22609       -0.97854
H         -3.29158       -6.62053       -0.29222
H         -0.09453       -4.07324       -1.67760
H          4.36699       -4.31552        0.69180
H          2.49371       -2.51318        1.16087
H          4.28955       -2.76812       -3.34353
H          3.87436       -4.61353       -1.75269
H         -4.61449       -2.74779        4.61127
H         -6.07987       -2.20769        3.78835
H         -5.32603       -3.74021        3.34269
H         -5.26403        5.42515       -2.42550
H         -5.93201        4.27143       -3.57564
H         -6.61332        4.39048       -1.95180
H          1.02708        6.57528        3.69912
H          0.11879        5.70734        4.93857
H          1.87646        5.77726        5.02442
H          7.60294       -1.05025        0.29517
H          7.41947       -0.30610       -1.29017
H          7.79769        0.69480        0.11346
