171
-217.84377590
P         -1.53656        0.34029       -0.40605
P          1.66127       -0.37832       -0.29743
C         -0.80365        1.31938       -1.71740
C          1.02646       -1.34442       -1.67429
C          0.01361        0.71815       -2.66676
C          0.61945        1.52730       -3.64637
C          0.35756        2.88766       -3.65841
C         -0.47752        3.45943       -2.72185
C         -1.05170        2.66960       -1.74526
C          1.27430       -2.69582       -1.68500
C          0.72768       -3.49695       -2.66763
C         -0.08443       -2.93588       -3.62982
C         -0.34390       -1.57563       -3.64146
C          0.23893       -0.75360       -2.65676
Cl         1.49852        0.20786        2.94256
Cl        -1.71198       -0.58426        2.72301
C         -1.25316       -1.02235       -4.68283
C          1.50620        0.93455       -4.68439
H         -0.68299        4.51691       -2.75239
H         -1.70080        3.10624       -1.00334
H          1.89882       -3.12973       -0.92147
H          0.92636       -4.55622       -2.67419
H          0.81374        3.50136       -4.41675
H         -0.53304       -3.55846       -4.38560
C         -3.79467       -3.26297       -1.93508
C         -2.80899       -3.45223       -0.97452
C         -2.12011       -2.33416       -0.52183
C         -2.39657       -1.09457       -1.04084
C         -3.35580       -0.92649       -2.00924
C         -4.08511       -2.01519       -2.47256
H         -4.36794       -4.11188       -2.25875
H         -1.36959       -2.41705        0.24487
H         -3.53694        0.06503       -2.38865
C         -4.43176        2.82428        2.06173
C         -3.07034        3.07779        2.17790
C         -2.19909        2.33111        1.39426
C         -2.67740        1.35274        0.55724
C         -4.02442        1.10360        0.47313
C         -4.93325        1.83971        1.21928
H         -5.11287        3.40858        2.65123
H         -1.13680        2.49404        1.44672
H         -4.37379        0.31681       -0.17144
C          4.31158       -2.77560        2.50016
C          2.99606       -3.18067        2.31131
C          2.21899       -2.46059        1.41414
C          2.73551       -1.37293        0.75388
C          4.03406       -0.97904        0.96303
C          4.85358       -1.68078        1.83862
H          4.93169       -3.31101        3.19405
H          1.18963       -2.73211        1.25076
H          4.39538       -0.10324        0.45427
C          3.85141        3.45279       -1.30047
C          2.79979        3.48978       -0.39260
C          2.12194        2.30560       -0.13688
C          2.48937        1.14069       -0.76297
C          3.53427        1.11856       -1.65425
C          4.24325        2.28037       -1.93769
H          4.38774        4.35884       -1.50576
H          1.31095        2.28668        0.57111
H          3.81097        0.18361       -2.11230
Pd        -0.02337       -0.07629        1.32023
C         -1.32309       -4.85962        0.52809
C         -2.53778       -4.85624       -0.41889
C         -2.24605       -5.82308       -1.58200
C         -3.77362       -5.33702        0.36147
H         -1.11106       -5.86756        0.88435
H         -0.43465       -4.49210        0.01565
H         -1.50423       -4.23373        1.40141
H         -2.00898       -6.81972       -1.21009
H         -3.10167       -5.91347       -2.24983
H         -1.39865       -5.47225       -2.16992
H         -3.60829       -6.32855        0.78256
H         -3.99981       -4.65477        1.18075
H         -4.65076       -5.38801       -0.28280
C         -5.09186       -2.88512       -4.61433
C         -5.23805       -1.85820       -3.47448
C         -5.26174       -0.44742       -4.09564
C         -6.56797       -2.09391       -2.73626
H         -5.88267       -2.75886       -5.35366
H         -4.13602       -2.76818       -5.12331
H         -5.15077       -3.90707       -4.24273
H         -5.44108        0.31490       -3.33819
H         -4.31959       -0.22239       -4.59454
H         -6.05729       -0.36440       -4.83600
H         -7.41585       -1.98165       -3.41173
H         -6.60729       -3.09615       -2.31051
H         -6.68814       -1.38074       -1.92102
C         -3.12358        3.84207        4.56917
C         -2.57148        4.14465        3.16306
C         -3.05646        5.52834        2.69688
C         -1.03316        4.16338        3.24854
H         -2.82072        2.84648        4.89307
H         -2.75067        4.56199        5.29747
H         -4.21166        3.88469        4.58918
H         -4.14450        5.57281        2.66139
H         -2.71048        6.31120        3.37160
H         -2.67971        5.75149        1.69871
H         -0.59383        4.43144        2.28959
H         -0.69365        4.89634        3.98019
H         -0.64526        3.19007        3.54907
C         -7.28141        2.43024        2.00659
C         -6.43070        1.52541        1.09522
C         -6.67408        0.05814        1.49671
C         -6.87427        1.74242       -0.36343
H         -8.34056        2.19319        1.90655
H         -7.01119        2.29669        3.05392
H         -7.15284        3.48082        1.74671
H         -7.73319       -0.19215        1.43865
H         -6.13418       -0.62692        0.84395
H         -6.33919       -0.12124        2.51811
H         -6.32967        1.08853       -1.04315
H         -7.93774        1.53641       -0.48333
H         -6.69186        2.77147       -0.67238
C          2.08972       -5.49681        2.04837
C          2.37914       -4.37199        3.05699
C          1.06850       -3.92714        3.73645
C          3.32457       -4.91594        4.14542
H          1.62435       -6.35222        2.53771
H          1.42096       -5.15357        1.26106
H          3.01098       -5.83641        1.57539
H          1.25204       -3.09638        4.41741
H          0.32917       -3.60035        3.00718
H          0.62874       -4.74350        4.30892
H          2.85578       -5.73550        4.68997
H          4.24802       -5.29797        3.71085
H          3.57643       -4.13929        4.86739
C          6.39616       -0.79634        3.59971
C          6.29720       -1.24862        2.13188
C          6.73355       -0.08071        1.22681
C          7.25114       -2.43256        1.88499
H          5.71416        0.03156        3.79281
H          6.13756       -1.60695        4.28012
H          7.40661       -0.46621        3.84003
H          7.76713        0.20078        1.42780
H          6.66454       -0.36076        0.17635
H          6.11484        0.80094        1.39330
H          8.28723       -2.13942        2.05370
H          7.03148       -3.26740        2.54913
H          7.16429       -2.78857        0.85857
C          0.95516        5.14993       -0.05741
C          2.38739        4.76713        0.35265
C          3.32109        5.94862        0.02679
C          2.44583        4.50818        1.87064
H          0.61265        6.03014        0.48636
H          0.91039        5.37358       -1.12264
H          0.25849        4.33731        0.14166
H          3.02278        6.83978        0.57895
H          4.35144        5.72045        0.29910
H          3.28912        6.19407       -1.03455
H          2.16352        5.39965        2.43035
H          1.77358        3.70361        2.16472
H          3.45358        4.22436        2.17302
C          5.00370        1.73937       -4.27194
C          5.45353        2.22455       -2.88357
C          6.49789        1.24970       -2.31024
C          6.11791        3.60585       -3.04609
H          4.54606        0.75252       -4.21740
H          4.27844        2.42984       -4.70064
H          5.85004        1.67619       -4.95577
H          7.37559        1.19443       -2.95396
H          6.82452        1.57621       -1.32331
H          6.09020        0.24389       -2.21621
H          6.48002        3.98267       -2.08968
H          6.97214        3.54642       -3.72047
H          5.41927        4.33087       -3.46333
H         -2.18983       -1.57942       -4.70730
H          2.08999        0.10799       -4.27672
H         -0.80024       -1.08833       -5.67307
H         -1.49844        0.02275       -4.49018
H          2.20271        1.67593       -5.07601
H          0.92437        0.55480       -5.52476
