75
-122.81321501
P          1.87325       -0.53140        0.13717
C          1.61536       -1.57138       -1.30429
C          1.28562       -2.89335       -1.11101
C          1.20158       -3.74485       -2.19815
C          1.45594       -3.26621       -3.46824
C          1.78925       -1.93930       -3.65577
C          1.87203       -1.09019       -2.56768
H          2.13817       -0.05364       -2.69590
H          1.98334       -1.56487       -4.64734
H          1.38732       -3.92827       -4.31588
H          0.93898       -4.77971       -2.05263
H          1.11158       -3.25576       -0.10979
C          3.30042       -1.23983        0.98874
C          4.28413       -1.81122        0.21230
C          5.39681       -2.37677        0.80881
C          5.51970       -2.36550        2.18363
C          4.53685       -1.78520        2.95974
C          3.42965       -1.21891        2.35788
H          2.67667       -0.73375        2.95285
H          4.63577       -1.76591        4.03271
H          6.38532       -2.80603        2.65093
H          6.16436       -2.82642        0.20058
H          4.17485       -1.81657       -0.86072
C          2.25379        1.15706       -0.34329
C          3.40579        1.80845        0.02944
C          3.58064        3.15345       -0.26753
C          2.54922        3.83665       -0.91181
C          1.38440        3.19748       -1.27563
C          1.24022        1.82639       -1.01098
O          0.07399        1.13165       -1.36871
C         -1.13550        1.78413       -1.08389
C         -1.29987        3.15550       -1.33501
C         -2.49414        3.76101       -1.01356
C         -3.53799        3.04007       -0.43461
C         -3.35218        1.68993       -0.17190
C         -2.17131        1.06781       -0.50363
P         -1.76526       -0.64811       -0.11764
C         -3.05956       -1.39441        0.89001
C         -4.34633       -1.40676        0.40116
C         -5.35871       -1.99297        1.13914
C         -5.07259       -2.57268        2.35888
C         -3.77759       -2.57400        2.83734
C         -2.76778       -1.98764        2.09687
H         -1.75268       -1.99146        2.45900
H         -3.55283       -3.03048        3.78730
H         -5.86029       -3.02850        2.93633
H         -6.36751       -1.99940        0.76026
H         -4.55101       -0.97188       -0.56472
C         -1.72768       -1.58286       -1.65771
C         -1.41778       -0.96074       -2.84519
C         -1.48123       -1.66544       -4.03263
C         -1.84980       -2.99586       -4.02252
C         -2.15171       -3.62112       -2.82903
C         -2.09283       -2.91003       -1.64395
H         -2.34255       -3.38150       -0.70685
H         -2.43663       -4.66030       -2.81997
H         -1.89507       -3.54873       -4.94656
H         -1.23450       -1.17862       -4.96175
H         -1.10821        0.07055       -2.83479
Pd        -0.06518       -0.02297        1.43231
Cl        -1.74296        0.94691        2.58979
Cl         1.40892        0.99813        2.79427
H         -4.12616        1.13391        0.32574
C         -4.80321        3.71690       -0.04428
H         -5.65406        3.04026       -0.13409
H         -4.99935        4.58251       -0.67829
H         -4.75360        4.06019        0.98979
H         -2.61398        4.81324       -1.20210
S          0.04570        4.06445       -2.05285
H          2.65411        4.88740       -1.11680
C          4.81257        3.86775        0.16030
H          4.16329        1.27451        0.57664
H          5.67479        3.19963        0.15775
H          5.03658        4.70102       -0.50693
H          4.69733        4.26500        1.16952
