111
-148.55490828
P         -2.59741       -2.03282       -0.17724
P          0.08332       -0.40160       -0.55014
C         -1.87266       -1.86235       -1.83107
C         -0.68077       -1.18682       -1.98105
C         -3.38230       -3.69034        0.06941
C         -2.53354       -4.57700        0.95426
C         -2.50626       -2.39254       -2.93673
H         -3.44804       -2.90265       -2.81799
C         -1.93605       -2.25154       -4.19030
H         -2.42977       -2.66547       -5.05433
C         -0.73771       -1.57903       -4.33628
H         -0.29561       -1.46742       -5.31263
C         -0.10976       -1.04022       -3.22764
H          0.81778       -0.49777       -3.32460
Pd        -0.95170       -1.35148        1.28644
Cl        -2.27324       -1.96673        2.99111
Cl         0.74777       -0.63971        2.57549
C         -4.76227       -3.33109        0.65139
C         -4.05337       -0.92906        0.11660
H         -2.99821       -5.55446        1.10340
H         -1.54156       -4.73421        0.52394
H         -2.39545       -4.12522        1.93758
H         -4.69775       -3.35159        1.74808
H         -5.50377       -4.09942        0.38435
H         -3.88722       -0.46287        1.09712
C         -5.22928       -1.92120        0.18839
C         -4.17913        0.12308       -0.96375
H         -3.49308       -4.13476       -0.92781
H         -5.68962       -1.99638       -0.80641
H         -6.01833       -1.53210        0.84977
H         -4.27638       -0.34058       -1.94714
H         -5.05548        0.75597       -0.80572
H         -3.29819        0.76738       -0.99092
C         -1.43523        3.87007       -0.12254
C         -0.76726        3.23984        0.95817
C         -0.33603        1.93689        0.78689
C         -0.46787        1.29711       -0.41649
C         -1.00857        1.94106       -1.49803
C         -1.47260        3.24186       -1.39416
O         -2.10356        5.10691        0.07865
C         -0.53707        3.92318        2.31447
H          0.09485        1.38541        1.60442
H         -1.08098        1.40309       -2.42669
C         -2.04179        3.93607       -2.64131
C          4.60859       -0.79660       -0.27225
C          4.00228        0.47843       -0.13904
C          2.62353        0.55952       -0.23181
C          1.86481       -0.54590       -0.51374
C          2.45287       -1.76208       -0.74209
C          3.82862       -1.91296       -0.67050
O          5.98597       -0.96346        0.03138
C          4.80340        1.75713        0.15112
H          2.11776        1.49369       -0.06284
H          1.81533       -2.60062       -0.96470
C          4.44739       -3.28402       -0.98503
C          0.77001        3.41173        2.96339
C         -0.38964        5.44688        2.15382
C         -1.71094        3.59749        3.25031
C         -1.35816        3.40472       -3.92162
C         -3.54888        3.65430       -2.73908
C         -1.78839        5.45387       -2.59380
C         -3.45269        4.96957        0.50725
H          1.60910        3.51447        2.27604
H          1.00331        3.97999        3.86342
H          0.69432        2.36601        3.25716
H         -0.16289        5.92144        3.10821
H          0.41481        5.68282        1.45794
H         -1.30264        5.89646        1.77195
H         -2.65283        3.95396        2.83982
H         -1.79950        2.52105        3.39607
H         -1.57188        4.06008        4.22702
H         -0.27381        3.47487       -3.83955
H         -1.62148        2.36646       -4.11838
H         -1.66600        3.98276       -4.79267
H         -4.07584        4.01670       -1.85971
H         -3.98057        4.13953       -3.61407
H         -3.73670        2.58414       -2.82116
H         -2.13188        5.93752       -3.50789
H         -2.31115        5.91722       -1.76072
H         -0.72519        5.66197       -2.47857
H         -4.11285        5.47297       -0.19896
H         -3.72585        3.91554        0.57284
H         -3.57724        5.43795        1.48337
C          6.24257       -1.28300        1.39327
C          4.91591        1.94887        1.67132
C          6.20443        1.69248       -0.48329
C          4.09464        2.99312       -0.44958
C          5.85476       -3.13311       -1.59069
C          4.51119       -4.11980        0.30237
C          3.59073       -4.04313       -2.02391
H          5.43193        1.11285        2.13713
H          5.46435        2.85944        1.91104
H          3.92735        2.02011        2.12434
H          6.13191        1.51464       -1.55571
H          6.74756        2.62465       -0.32980
H          6.79922        0.89108       -0.05254
H          3.15769        3.21063        0.06091
H          4.72076        3.88034       -0.35795
H          3.88182        2.84165       -1.50749
H          6.54427       -2.67730       -0.88461
H          6.26578       -4.10200       -1.87317
H          5.82416       -2.50504       -2.48039
H          5.12549       -3.63508        1.05721
H          3.51522       -4.25493        0.72350
H          4.93258       -5.10568        0.10771
H          2.62505       -4.33574       -1.61450
H          4.09133       -4.95640       -2.34482
H          3.41752       -3.42844       -2.90689
H          6.77014       -2.23482        1.45244
H          6.87615       -0.51515        1.83682
H          5.30714       -1.34956        1.95042
