111
-148.55543646
P         -2.73233       -1.92731        0.55056
P          0.01800       -0.59605       -0.27891
C         -2.00091       -2.30440       -1.06455
C         -0.78259       -1.75609       -1.40287
C         -3.52880       -3.41508        1.30994
C         -2.70830       -3.94785        2.46433
C         -2.65946       -3.12352       -1.95908
H         -3.61983       -3.53600       -1.69615
C         -2.08953       -3.39594       -3.19094
H         -2.60299       -4.03503       -3.89063
C         -0.86607       -2.84779       -3.52602
H         -0.42427       -3.05744       -4.48626
C         -0.21197       -2.02138       -2.62999
H          0.73587       -1.57182       -2.88132
Pd        -1.08864       -0.83355        1.73923
Cl        -2.45821       -0.78271        3.51488
Cl         0.62587        0.19463        2.76930
C         -4.92607       -2.89718        1.69984
C         -4.18540       -0.78610        0.45694
H         -3.17807       -4.82401        2.91740
H         -1.70358       -4.23007        2.14046
H         -2.60038       -3.19224        3.24395
H         -4.89975       -2.56903        2.74808
H         -5.66229       -3.71456        1.66456
H         -4.03920       -0.04364        1.25300
C         -5.36963       -1.70912        0.79895
C         -4.27660       -0.11247       -0.89488
H         -3.60756       -4.16594        0.51336
H         -5.79705       -2.09733       -0.13585
H         -6.17761       -1.13412        1.27645
H         -3.38913        0.49161       -1.09402
H         -4.35528       -0.85274       -1.69315
H         -5.15083        0.53961       -0.95841
C         -1.13395        3.68227       -1.33051
C         -0.41247        3.40691       -0.14091
C         -0.11371        2.08771        0.15040
C         -0.42477        1.08057       -0.72300
C         -1.02169        1.35246       -1.92570
C         -1.36285        2.64841       -2.27474
O         -1.65877        4.98173       -1.56117
C          0.02889        4.50016        0.84395
H          0.35114        1.81743        1.08273
H         -1.22564        0.53136       -2.58973
C         -1.99509        2.91533       -3.64981
C          4.55371       -0.98020       -0.17420
C          3.77002       -1.66931        0.78672
C          2.39064       -1.57560        0.69917
C          1.79690       -0.76767       -0.23428
C          2.55184       -0.01509       -1.09588
C          3.93541       -0.07182       -1.07056
O          5.95138       -1.21899       -0.25801
C          4.39176       -2.50102        1.91998
H          1.75664       -2.12186        1.37608
H          2.03895        0.62971       -1.78888
C          4.74011        0.83677       -2.01306
C          0.29809        5.83009        0.11714
C         -1.05745        4.68748        1.91373
C          1.34750        4.09649        1.54382
C         -1.52970        1.86196       -4.68070
C         -3.52511        2.84038       -3.53370
C         -1.57212        4.29309       -4.19109
C         -2.95470        5.18767       -1.01293
H         -0.60580        6.22292       -0.34120
H          0.67234        6.58539        0.80774
H          1.03880        5.69340       -0.67010
H         -2.00309        4.98637        1.46766
H         -1.22682        3.75775        2.45657
H         -0.76794        5.45141        2.63478
H          2.10851        3.82856        0.81133
H          1.73499        4.91944        2.14384
H          1.20657        3.25092        2.21523
H         -1.87279        2.12276       -5.68165
H         -0.44213        1.79771       -4.70593
H         -1.92772        0.87371       -4.45439
H         -3.99917        3.03171       -4.49605
H         -3.83864        1.85349       -3.19511
H         -3.90318        3.57047       -2.82240
H         -1.96665        4.45855       -5.19331
H         -1.93801        5.09702       -3.55698
H         -0.48634        4.37074       -4.23659
H         -3.63874        5.49813       -1.80266
H         -3.32299        4.27048       -0.55144
H         -2.91619        5.97993       -0.26565
C          6.30528       -2.29662       -1.11539
C          5.74901       -1.91828        2.35449
C          3.47806       -2.48638        3.16736
C          4.56396       -3.95382        1.45270
C          6.07406        1.25666       -1.36942
C          4.99942        0.09694       -3.33391
C          3.95890        2.13552       -2.31948
H          6.47814       -1.96727        1.54963
H          5.64189       -0.87367        2.64491
H          6.15766       -2.46640        3.20302
H          3.97439       -2.95451        4.01703
H          3.22364       -1.46482        3.44892
H          2.55267       -3.03422        2.99660
H          3.60302       -4.38504        1.17307
H          5.21825       -4.01428        0.58627
H          4.99339       -4.56953        2.24262
H          6.71832        0.39803       -1.19665
H          6.61650        1.95211       -2.00940
H          5.90058        1.74280       -0.40995
H          5.56886       -0.81465       -3.16929
H          4.05970       -0.18074       -3.81085
H          5.55914        0.72260       -4.02868
H          3.07374        1.94123       -2.92347
H          4.57843        2.83703       -2.87772
H          3.64512        2.62611       -1.39836
H          5.41319       -2.73397       -1.56546
H          6.96896       -1.93501       -1.90063
H          6.83631       -3.05872       -0.54535
