111
-148.55487736
P         -2.55157       -1.98393       -0.96066
P          0.18074       -0.44245       -0.46974
C         -1.38259       -1.75477       -2.32998
C         -0.17547       -1.12985       -2.09935
C         -3.44221       -3.60263       -1.07166
C         -2.89910       -4.60568       -0.07747
C         -1.69715       -2.19414       -3.60007
H         -2.65036       -2.66285       -3.78147
C         -0.79494       -2.01493       -4.63457
H         -1.03990       -2.35850       -5.62633
C          0.41652       -1.39377       -4.39891
H          1.11738       -1.25148       -5.20497
C          0.72475       -0.94428       -3.12761
H          1.65755       -0.43932       -2.93031
Pd        -1.33245       -1.48837        0.93444
Cl        -3.12210       -2.16685        2.10755
Cl        -0.11117       -0.78474        2.68503
C         -4.91037       -3.19759       -0.84357
C         -3.98441       -0.81337       -0.99121
H         -1.83601       -4.79445       -0.24477
H         -3.00911       -4.23874        0.94382
H         -3.42806       -5.55932       -0.14298
H         -5.13850       -3.28996        0.22730
H         -5.58677       -3.90146       -1.35209
H         -4.06925       -0.41147        0.02742
C         -5.17784       -1.73578       -1.30413
C         -3.76829        0.30071       -1.99228
H         -3.30344       -3.96604       -2.09767
H         -5.36102       -1.72139       -2.38736
H         -6.09690       -1.34146       -0.84455
H         -3.61333       -0.10351       -2.99434
H         -4.62785        0.97368       -2.03364
H         -2.88777        0.89404       -1.73828
C         -1.18666        3.90226       -0.30513
C         -0.93926        3.29260       -1.56209
C         -0.50075        1.97905       -1.58052
C         -0.37957        1.25935       -0.42110
C         -0.71997        1.81279        0.78415
C         -1.16556        3.11849        0.87625
O         -1.41741        5.30157       -0.22881
C         -1.11744        4.04402       -2.89055
H         -0.24493        1.49711       -2.50741
H         -0.62238        1.20168        1.66381
C         -1.59460        3.65867        2.24893
C          4.50657       -0.80120        0.90540
C          3.76643        0.37679        1.17929
C          2.45337        0.43839        0.74617
C          1.89711       -0.57730        0.01410
C          2.63725       -1.67575       -0.33700
C          3.96074       -1.79791        0.05544
O          5.77483       -1.00061        1.51272
C          4.34132        1.56178        1.97067
H          1.83541        1.28361        0.99315
H          2.16053       -2.44497       -0.91968
C          4.77239       -3.01374       -0.41900
C          0.19069        4.76595       -3.24665
C         -1.46542        3.06359       -4.03400
C         -2.27405        5.05592       -2.79919
C         -2.67748        4.74339        2.10740
C         -2.20279        2.52675        3.10979
C         -0.36614        4.22426        2.97769
C         -0.23802        6.07096       -0.03009
H          1.01103        4.05433       -3.33747
H          0.09799        5.29756       -4.19338
H          0.46255        5.48887       -2.48142
H         -0.63144        2.40359       -4.26804
H         -2.32645        2.44988       -3.77135
H         -1.70904        3.60616       -4.94715
H         -2.44425        5.54448       -3.75825
H         -3.19688        4.55791       -2.50344
H         -2.06422        5.83215       -2.06724
H         -3.02660        5.07852        3.08375
H         -2.30121        5.61395        1.57635
H         -3.53403        4.35970        1.55412
H         -2.99536        2.01095        2.56826
H         -1.45385        1.79167        3.40021
H         -2.63035        2.92640        4.02891
H          0.38581        3.44892        3.12271
H          0.09413        5.02900        2.40904
H         -0.63922        4.61607        3.95710
H         -0.30028        6.60107        0.92001
H          0.64172        5.42602       -0.02888
H         -0.14695        6.80937       -0.82661
C          5.71422       -1.65826        2.77222
C          3.69178        2.88895        1.51381
C          4.04536        1.36102        3.46477
C          5.85681        1.70271        1.74149
C          4.27647       -3.49319       -1.80242
C          6.26247       -2.65968       -0.57652
C          4.60492       -4.16192        0.58758
H          4.18636        3.74174        1.97829
H          3.76755        3.00591        0.43307
H          2.64007        2.94136        1.79092
H          4.42516        2.19509        4.05423
H          2.97186        1.28590        3.63728
H          4.50388        0.44842        3.83810
H          6.07616        1.80415        0.67915
H          6.25085        2.57953        2.25472
H          6.39703        0.83509        2.11156
H          4.26313       -2.66974       -2.51607
H          4.92975       -4.26971       -2.19976
H          3.27454       -3.91620       -1.74792
H          6.38683       -1.81678       -1.25551
H          6.70900       -2.38839        0.37682
H          6.82564       -3.50294       -0.97558
H          5.15676       -5.04539        0.26759
H          3.55516       -4.43686        0.68718
H          4.96718       -3.87841        1.57280
H          6.30739       -2.57190        2.73634
H          6.13134       -1.01165        3.54399
H          4.68147       -1.90393        3.02304
