75
-122.81264262
P          1.87110       -0.53482        0.14251
C          1.60758       -1.57159       -1.29973
C          1.26762       -2.89119       -1.10772
C          1.18168       -3.74208       -2.19521
C          1.44439       -3.26526       -3.46427
C          1.78801       -1.94080       -3.65049
C          1.87284       -1.09230       -2.56207
H          2.14744       -0.05780       -2.68911
H          1.98860       -1.56778       -4.64131
H          1.37410       -3.92679       -4.31220
H          0.91094       -4.77499       -2.05074
H          1.08731       -3.25241       -0.10717
C          3.30446       -1.24245        0.98498
C          4.26025       -1.86097        0.20972
C          5.37906       -2.41852        0.80209
C          5.53716       -2.35090        2.17167
C          4.58304       -1.72271        2.94626
C          3.46938       -1.16571        2.34813
H          2.73821       -0.64427        2.93971
H          4.70925       -1.65951        4.01466
H          6.40790       -2.78465        2.63576
H          6.12452       -2.90501        0.19471
H          4.12569       -1.90777       -0.85928
C          2.25264        1.15511       -0.33291
C          3.40140        1.80771        0.04805
C          3.57114        3.15633       -0.23509
C          2.55025        3.83517       -0.90039
C          1.38856        3.19491       -1.27224
C          1.24328        1.82407       -1.00704
O          0.07994        1.12902       -1.37324
C         -1.13086        1.78086       -1.09277
C         -1.29462        3.15193       -1.34580
C         -2.48964        3.75749       -1.02731
C         -3.53421        3.03676       -0.44925
C         -3.34874        1.68688       -0.18466
C         -2.16721        1.06450       -0.51365
P         -1.75690       -0.65075       -0.12711
C         -3.04645       -1.39796        0.88604
C         -4.33618       -1.40813        0.40508
C         -5.34470       -1.99419        1.14842
C         -5.05178       -2.57610        2.36549
C         -3.75380       -2.58001        2.83580
C         -2.74788       -1.99380        2.08996
H         -1.73052       -1.99979        2.44571
H         -3.52370       -3.03826        3.78362
H         -5.83649       -3.03159        2.94723
H         -6.35585       -1.99867        0.77583
H         -4.54629       -0.97197       -0.55904
C         -1.72803       -1.58370       -1.66866
C         -1.41388       -0.96156       -2.85501
C         -1.48314       -1.66330       -4.04389
C         -1.86188       -2.99087       -4.03639
C         -2.16829       -3.61619       -2.84407
C         -2.10356       -2.90801       -1.65757
H         -2.35641       -3.37959       -0.72139
H         -2.46121       -4.65316       -2.83704
H         -1.91164       -3.54152       -4.96152
H         -1.23292       -1.17649       -4.97210
H         -1.09621        0.06724       -2.84248
Pd        -0.06737       -0.01079        1.43058
Cl        -1.75288        0.95279        2.58521
Cl         1.37031        0.97098        2.85753
H         -4.12335        1.13162        0.31272
C         -4.79995        3.71397       -0.06124
H         -5.65024        3.03624       -0.14816
H         -4.99699        4.57691       -0.69859
H         -4.75037        4.06131        0.97148
H         -2.60937        4.80951       -1.21696
S          0.05423        4.05852       -2.06113
H          2.66109        4.88300       -1.11674
C          4.82273        3.85879        0.15490
H          4.16113        1.27110        0.58944
H          5.23276        3.44572        1.07747
H          5.58012        3.76188       -0.62396
H          4.64267        4.92180        0.32012
