72
-98.10246497
Fe        -0.02758        2.78966       -0.01857
P          1.87170       -0.03839       -0.03951
P         -1.84266       -0.09271       -0.06058
C          1.42140        1.60019        0.65742
C          0.45664        1.84478        1.71557
C          0.38558        3.27767        1.94029
C          1.32553        3.91968        1.03972
C          1.98226        2.88338        0.26102
C         -1.41853        1.54894       -0.75076
C         -2.02697        2.82084       -0.39566
C         -1.36691        3.86483       -1.16145
C         -0.36123        3.23757       -1.99977
C         -0.40163        1.80636       -1.75607
C          3.19663       -0.76252        1.03913
C          4.41779        0.06765        0.60749
C          2.96002        0.24238       -1.52415
C          4.35773        0.46686       -0.89770
C         -3.24845       -0.80905       -1.03082
C         -4.47141       -0.32482       -0.23429
C         -2.69536        0.08036        1.58059
C         -4.17017       -0.26487        1.28588
H         -0.09517        1.08365        2.26513
H         -0.24574        3.78072        2.67631
H          1.52479        4.99198        0.97753
H          2.74970        3.03963       -0.49975
H         -2.84347        2.96003        0.31620
H          0.23528        1.05560       -2.22418
Cl         1.61329       -3.06030       -0.39612
Cl        -1.51021       -3.10616        0.26678
Pd         0.02827       -1.48875       -0.06356
H          3.32457       -1.80880        0.73840
C          2.89047       -0.67770        2.53234
H          2.59625        1.14805       -2.02396
C          2.96225       -0.92879       -2.50519
H          5.34969       -0.47240        0.83634
H          4.44935        0.97477        1.22892
H          4.67458        1.51228       -1.02796
H          5.09424       -0.12293       -1.46137
H         -1.59916        4.93158       -1.12564
H          0.29913        3.74928       -2.70364
H          3.82612       -0.80320        3.09490
H          3.78599       -0.79111       -3.21957
H         -3.15783       -1.89955       -0.96575
C         -3.25782       -0.37064       -2.49072
H         -2.58792        1.13194        1.87167
C         -2.07552       -0.82816        2.63661
H         -5.34149       -0.96737       -0.44036
H         -4.75146        0.67527       -0.59453
H         -4.84005        0.44790        1.78938
H         -4.39821       -1.24213        1.73242
H         -4.21531       -0.65976       -2.94596
H         -0.98859       -0.69301        2.64487
C          1.87326       -1.70652        2.99777
H          1.65902       -1.62069        4.06545
H          0.93003       -1.59924        2.46532
H          2.22658       -2.72262        2.81249
C          1.66143       -1.11220       -3.26617
H          1.39598       -0.21247       -3.82419
H          1.71915       -1.93600       -3.98132
H          0.83992       -1.33610       -2.58810
C         -2.10581       -0.95076       -3.29132
H         -2.12044       -2.04216       -3.27364
H         -2.12905       -0.63518       -4.33683
H         -1.15019       -0.63619       -2.87538
C         -2.63729       -0.59242        4.03043
H         -2.17973       -1.25032        4.77281
H         -2.46722        0.43633        4.35379
H         -3.71460       -0.76447        4.05990
H          2.54823        0.33825        2.76738
H          3.21123       -1.84441       -1.95332
H         -3.23773        0.72634       -2.53144
H         -2.22607       -1.87304        2.33488
