72
-108.40141615
Cl         1.66615       -0.87876        2.67617
Cl        -0.91723        0.96326        2.79637
P         -1.14021        1.11762       -0.30206
P          2.25828       -0.10854       -0.33889
C          3.23188        1.50297       -0.08968
C          3.56179        1.66490        1.39583
C          4.51277        1.47190       -0.91564
C          3.35187       -1.64493       -0.07714
C          4.20208       -1.91547       -1.32522
C          1.47612       -0.41123       -2.02974
C          1.54451        0.75597       -2.99231
C         -1.11350       -0.21816       -1.53374
C          0.06252       -0.96563       -1.97865
C         -0.41272       -2.04986       -2.84036
C         -1.85910       -1.97533       -2.90577
C         -2.28867       -0.83558       -2.11811
C          2.36916        2.68640       -0.50836
H          2.66065        1.64333        2.00858
H          4.23049        0.88889        1.75807
H          5.20491        0.71434       -0.55182
H          5.02856        2.43186       -0.85897
C          4.27537       -1.50213        1.12872
H          4.97235       -2.65714       -1.10732
H          4.70278       -1.01626       -1.67867
H          2.09714       -1.21155       -2.44278
H          0.88142        1.55512       -2.66895
H          1.20817        0.46095       -3.98842
H          2.55374        1.15367       -3.09312
H          0.22098       -2.73850       -3.40238
H         -2.50947       -2.63214       -3.48794
Pd         0.48986        0.29721        1.17281
H         -3.31686       -0.51251       -1.94255
C          2.39411       -2.80633        0.14477
H          3.61060       -2.31869       -2.14626
H          3.72584       -1.21113        2.02154
H          4.76644       -2.45164        1.34669
H          5.06349       -0.77393        0.94591
H          1.66128       -2.86871       -0.66095
H          2.93304       -3.75506        0.18412
H          1.86368       -2.69152        1.08867
H          4.05624        2.62090        1.57568
H          4.30725        1.26963       -1.96583
H          1.42467        2.68034        0.03248
H          2.86980        3.62916       -0.28134
H          2.16065        2.68762       -1.57499
C         -2.82209        1.18111        0.36949
C         -3.28366        2.13029        1.24728
C         -4.61489        1.82039        1.52506
C         -4.91409        0.69333        0.80062
O         -3.82294        0.29068        0.08640
H         -2.71347        2.94526        1.66143
H         -5.27727        2.35823        2.18354
H         -5.86971        0.18388        0.78835
C         -0.76750        2.73373       -1.00457
C         -0.72402        3.88686       -0.26036
C         -0.40829        4.92659       -1.13606
C         -0.27249        4.36278       -2.38097
O         -0.48651        3.01548       -2.31367
H         -0.88298        3.96265        0.80320
H         -0.29291        5.96810       -0.88409
H         -0.02885        4.89408       -3.29264
Fe        -1.25740       -2.16426       -0.96179
C         -2.17585       -2.03396        0.86686
C         -0.86153       -2.62470        0.99955
C         -0.81352       -3.82328        0.18353
C         -2.10128       -3.95915       -0.47240
C         -2.94945       -2.86393       -0.03568
H         -2.52341       -1.12899        1.36865
H         -0.07601       -2.25350        1.66011
H          0.02430       -4.51923        0.10317
H         -2.39703       -4.77056       -1.14151
H         -3.98718       -2.69188       -0.33034
