171
-217.84475767
P         -1.53868        0.32736       -0.40244
P          1.64581       -0.41419       -0.25400
C         -0.77766        1.27751       -1.72165
C          1.02394       -1.39500       -1.62864
C          0.03576        0.65658       -2.66169
C          0.65831        1.44757       -3.64583
C          0.41968        2.81199       -3.66925
C         -0.40788        3.40502       -2.73940
C         -1.00096        2.63193       -1.76062
C          1.26333       -2.74802       -1.61631
C          0.72341       -3.56119       -2.59267
C         -0.07406       -3.01054       -3.57281
C         -0.32546       -1.64921       -3.60806
C          0.25032       -0.81575       -2.62889
Cl         1.42837        0.12023        3.00144
Cl        -1.78824       -0.45312        2.72598
C         -1.21723       -1.10674       -4.66985
C          1.54181        0.83282       -4.67412
H         -0.59243        4.46611       -2.77698
H         -1.64456        3.08571       -1.02421
H          1.87680       -3.17419       -0.83982
H          0.91623       -4.62151       -2.58074
H          0.88990        3.41220       -4.42981
H         -0.51686       -3.64207       -4.32459
C         -3.78652       -3.29893       -1.89604
C         -2.81891       -3.46981       -0.91391
C         -2.13718       -2.34335       -0.47213
C         -2.40069       -1.11393       -1.02154
C         -3.33888       -0.96545       -2.01341
C         -4.06216       -2.06238       -2.46679
H         -4.35685       -4.15310       -2.21085
H         -1.39996       -2.41347        0.30845
H         -3.50567        0.01645       -2.42291
C         -4.43330        2.95795        1.90927
C         -3.06922        3.11976        2.11980
C         -2.19888        2.32710        1.38181
C         -2.68207        1.38213        0.51039
C         -4.03387        1.21612        0.34099
C         -4.94039        2.00793        1.03104
H         -5.11362        3.59012        2.44749
H         -1.13413        2.42555        1.49968
H         -4.39000        0.45438       -0.32918
C          4.39225       -2.77308        2.48739
C          3.07620       -3.19349        2.33324
C          2.26370       -2.48048        1.46218
C          2.74878       -1.38939        0.78484
C          4.04862       -0.98363        0.95620
C          4.89821       -1.66529        1.81699
H          5.03563       -3.31560        3.15266
H          1.23356       -2.76492        1.32829
H          4.39978       -0.11648        0.42494
C          3.78399        3.45920       -1.20446
C          2.72724        3.47189       -0.30200
C          2.06493        2.27562       -0.06225
C          2.44391        1.12486       -0.70768
C          3.49017        1.12801       -1.59763
C          4.19212        2.29991       -1.85527
H          4.31325        4.37319       -1.39217
H          1.26096        2.23505        0.65269
H          3.77690        0.20368       -2.07084
Pd        -0.05073       -0.15153        1.33599
C         -1.35160       -4.84785        0.63561
C         -2.55763       -4.86167       -0.32335
C         -2.25774       -5.85619       -1.46080
C         -3.80289       -5.32032        0.45512
H         -1.14536       -5.84858        1.01487
H         -0.45700       -4.49348        0.12462
H         -1.53859       -4.20366        1.49436
H         -3.10709       -5.95973       -2.13468
H         -1.40342       -5.52178       -2.04828
H         -2.02763       -6.84463       -1.06351
H         -4.03375       -4.61988        1.25758
H         -4.67399       -5.38090       -0.19649
H         -3.64622       -6.30344        0.89863
C         -5.04646       -2.98971       -4.59572
C         -5.19583       -1.92308       -3.49322
C         -5.18905       -0.53391       -4.16191
C         -6.54074       -2.11447       -2.76975
H         -4.07824       -2.90773       -5.08791
H         -5.13329       -3.99763       -4.19264
H         -5.81937       -2.87301       -5.35526
H         -4.23500       -0.33727       -4.64980
H         -5.96939       -0.46603       -4.91979
H         -5.37279        0.25590       -3.43442
H         -6.59992       -3.09954       -2.30770
H         -6.66500       -1.36956       -1.98395
H         -7.37571       -2.01696       -3.46333
C         -1.06951        3.93423        3.46081
C         -2.55859        4.15748        3.13013
C         -3.35395        4.04568        4.44605
C         -2.73419        5.56357        2.53321
H         -0.44437        4.10272        2.58666
H         -0.73565        4.62351        4.23618
H         -0.89672        2.91917        3.81850
H         -4.40489        4.29271        4.30382
H         -3.29568        3.03279        4.84409
H         -2.95725        4.72664        5.19889
H         -2.17778        5.65846        1.60084
H         -3.78279        5.76809        2.31851
H         -2.37488        6.32848        3.22140
C         -7.29158        2.75890        1.65705
C         -6.44405        1.78928        0.81157
C         -6.80706        0.34616        1.20951
C         -6.77847        2.01513       -0.67463
H         -8.35514        2.59070        1.48807
H         -7.10121        2.62052        2.72117
H         -7.07660        3.79556        1.39836
H         -7.87358        0.16212        1.08148
H         -6.26836       -0.38009        0.60189
H         -6.55419        0.16031        2.25312
H         -6.23949        1.31535       -1.31174
H         -7.84404        1.88098       -0.86001
H         -6.50607        3.02471       -0.98162
C          1.20709       -3.97202        3.81742
C          2.49448       -4.39921        3.08447
C          3.48279       -4.95298        4.12881
C          2.17269       -5.51183        2.07161
H          0.43890       -3.64268        3.11956
H          0.79474       -4.79829        4.39606
H          1.41002       -3.14786        4.50087
H          3.04011       -5.78487        4.67652
H          4.39252       -5.32071        3.65475
H          3.75503       -4.18619        4.85390
H          1.73715       -6.37915        2.56740
H          1.46658       -5.16453        1.31925
H          3.07596       -5.83493        1.55444
C          6.33649        0.32177        2.35705
C          6.34308       -1.17602        1.99175
C          7.10498       -1.38402        0.67156
C          7.07439       -1.94254        3.11066
H          5.75436        0.49352        3.26219
H          7.34903        0.68478        2.53226
H          5.90300        0.92623        1.56134
H          6.62910       -0.84107       -0.14340
H          8.13392       -1.03422        0.75355
H          7.12607       -2.43945        0.40072
H          6.55119       -1.83936        4.06118
H          7.15679       -3.00297        2.87347
H          8.08536       -1.55811        3.24537
C          0.84304        5.06600        0.13994
C          2.30759        4.72964        0.47169
C          3.17922        5.94651        0.10665
C          2.45553        4.46057        1.98144
H          0.18370        4.23011        0.36628
H          0.50044        5.92966        0.70954
H          0.73484        5.29717       -0.91898
H          3.09782        6.18341       -0.95405
H          2.86514        6.82765        0.66610
H          4.22756        5.76337        0.34161
H          2.15347        5.32973        2.56541
H          1.84504        3.61586        2.29710
H          3.49111        4.22953        2.23011
C          4.97794        1.84921       -4.19821
C          5.41552        2.26706       -2.78471
C          6.43671        1.25129       -2.23953
C          6.10297        3.64353       -2.87532
H          4.51694        0.86241       -4.19205
H          4.25797        2.56071       -4.60123
H          5.83069        1.81398       -4.87606
H          7.33467        1.23018       -2.85678
H          6.73180        1.51075       -1.22294
H          6.02149        0.24448       -2.22412
H          6.44427        3.97686       -1.89538
H          6.97383        3.59795       -3.52920
H          5.42621        4.39482       -3.28193
H         -2.15238       -1.66568       -4.70564
H          2.25426        1.55901       -5.06565
H         -0.74730       -1.18136       -5.65151
H         -1.46690       -0.06024       -4.49081
H          0.95915        0.45873       -5.51642
H          2.10820       -0.00152       -4.25773
