111
-148.55551491
P         -1.66139       -2.73250        0.01214
P         -0.45743        0.12467       -0.56823
C         -1.66682       -2.08237       -1.68217
C         -1.19901       -0.80762       -1.92228
C         -0.53933       -4.19347        0.16221
C          0.64496       -3.86611        1.04675
C         -2.10992       -2.86100       -2.73195
H         -2.44086       -3.86920       -2.54340
C         -2.10522       -2.34956       -4.01826
H         -2.45460       -2.95561       -4.83819
C         -1.64815       -1.06678       -4.25361
H         -1.63997       -0.67118       -5.25590
C         -1.18405       -0.29602       -3.20270
H         -0.79472        0.69566       -3.37190
Pd        -1.27129       -0.89285        1.33909
Cl        -1.79374       -2.06175        3.17733
Cl        -0.80654        1.01051        2.44842
C         -1.46124       -5.29540        0.72277
C         -3.26610       -3.49649        0.52828
H          1.23201       -3.04139        0.63783
H          0.31106       -3.56495        2.04177
H          1.30678       -4.72744        1.16408
H         -1.30591       -5.36391        1.80822
H         -1.17046       -6.27831        0.32234
H         -3.40761       -3.20544        1.57781
C         -2.96251       -5.00281        0.43778
C         -4.43415       -3.02419       -0.31105
H         -0.21647       -4.43709       -0.85850
H         -3.22381       -5.35842       -0.56839
H         -3.61083       -5.56548        1.12689
H         -5.37329       -3.46610        0.02956
H         -4.53650       -1.93731       -0.27021
H         -4.30419       -3.30089       -1.35769
C         -0.94830        4.64683       -0.74092
C          0.34991        4.08465       -0.64318
C          0.46385        2.70573       -0.59608
C         -0.63784        1.89845       -0.70659
C         -1.88382        2.43385       -0.90200
C         -2.06824        3.80586       -0.96744
O         -1.13105        6.04525       -0.57270
C          1.62141        4.94100       -0.53669
H          1.42286        2.24070       -0.45182
H         -2.71845        1.75920       -0.98923
C         -3.47559        4.35811       -1.24331
C          3.77066       -1.41447        0.12750
C          3.20956       -0.46456        1.01901
C          1.92308       -0.01818        0.77340
C          1.24032       -0.40560       -0.34860
C          1.81410       -1.24715       -1.26472
C          3.09282       -1.74346       -1.07461
O          4.98670       -2.06929        0.45903
C          3.94153        0.04582        2.26913
H          1.40853        0.60354        1.48553
H          1.23451       -1.53609       -2.12361
C          3.69827       -2.66993       -2.14017
C          1.47015        6.26115       -1.31394
C          1.91576        5.22686        0.94390
C          2.83310        4.19803       -1.14489
C         -3.40970        5.69755       -1.99961
C         -4.27940        3.38108       -2.13139
C         -4.22079        4.53700        0.08810
C         -1.36520        6.43955        0.77356
H          0.68350        6.88220       -0.89309
H          2.39402        6.83851       -1.28916
H          1.21972        6.06609       -2.35614
H          1.10074        5.77591        1.40910
H          2.04514        4.29704        1.49714
H          2.82564        5.81607        1.05504
H          3.11285        3.32768       -0.55343
H          2.61517        3.86750       -2.16009
H          3.70562        4.84970       -1.18527
H         -4.40788        6.05497       -2.25135
H         -2.92624        6.46725       -1.40339
H         -2.84506        5.58822       -2.92492
H         -5.22739        3.82486       -2.43473
H         -3.72289        3.13090       -3.03428
H         -4.51370        2.45685       -1.60543
H         -3.70268        5.23684        0.73919
H         -5.22984        4.91405       -0.07645
H         -4.29675        3.58747        0.61739
H         -1.36075        5.56878        1.43053
H         -0.59106        7.13821        1.09034
H         -2.32837        6.94451        0.84486
C          4.81688       -3.25597        1.22502
C          3.59003       -0.85503        3.46297
C          5.46498        0.07574        2.05148
C          3.50785        1.49313        2.59774
C          5.22801       -2.51228       -2.20793
C          3.32797       -4.12554       -1.81648
C          3.14694       -2.32377       -3.54223
H          3.89491       -1.88350        3.28466
H          4.08305       -0.50990        4.37131
H          2.51485       -0.85500        3.64137
H          5.86344       -0.92202        1.88746
H          5.71588        0.68193        1.18165
H          5.97617        0.49637        2.91707
H          2.46771        1.54225        2.91593
H          4.10950        1.90258        3.40880
H          3.63211        2.13999        1.72997
H          5.64989       -3.12221       -3.00636
H          5.49862       -1.47368       -2.39512
H          5.70019       -2.81712       -1.27741
H          3.70586       -4.42170       -0.84098
H          2.24596       -4.25417       -1.80564
H          3.74094       -4.80788       -2.55893
H          2.08864       -2.56517       -3.63079
H          3.66881       -2.88989       -4.31344
H          3.27726       -1.26389       -3.75918
H          3.75837       -3.44431        1.40689
H          5.24957       -4.10127        0.69017
H          5.33582       -3.15523        2.17807
