115
-277.94189484
P         -2.05702       -0.40645       -0.02557
P          1.60594        0.64186       -0.29978
C         -1.86479       -2.19077        0.17387
C         -2.94863       -3.00211       -0.08300
H         -3.92054       -2.56385       -0.24910
C         -2.76099       -4.35954       -0.24338
H         -3.57337       -4.98874       -0.56916
C         -1.49470       -4.90820       -0.11968
C         -0.44254       -4.10220        0.27935
H          0.53829       -4.54339        0.36861
C         -0.62721       -2.74384        0.42789
H          0.20881       -2.11817        0.69172
C         -3.59528        0.15434        0.72970
C         -4.12683        1.34853        0.30119
H         -3.62913        1.90874       -0.47349
C         -5.29607        1.82088        0.85896
H         -5.72608        2.75633        0.53664
C         -5.93654        1.10204        1.84984
C         -5.39161       -0.09150        2.28091
H         -5.89254       -0.63281        3.06797
C         -4.22414       -0.56718        1.71826
H         -3.78768       -1.48875        2.06822
C         -1.93766        0.22897       -1.73620
C         -1.40307        1.50483       -1.78471
H         -1.06187        1.96712       -0.87368
C         -1.15145        2.14238       -2.99979
C         -1.66600        1.55979       -4.15162
H         -1.52016        2.04932       -5.10003
C         -2.20609        0.29041       -4.11197
H         -2.48053       -0.19480       -5.03327
C         -2.24215       -0.44344       -2.92660
C          1.24138        0.21140       -2.03843
C          0.68908       -1.05099       -2.13006
H          0.48174       -1.59553       -1.22732
C          0.24100       -1.56826       -3.34418
C          0.57087       -0.87242       -4.50057
H          0.27308       -1.26752       -5.45739
C          1.12433        0.38983       -4.42111
H          1.25414        0.96516       -5.32216
C          1.35717        1.00344       -3.18976
C         -2.27345       -1.95012       -3.04725
H         -2.99379       -2.22866       -3.82454
H         -2.68897       -2.36856       -2.13365
C         -0.86713       -2.58788       -3.35806
H         -0.63151       -3.38560       -2.64570
H         -0.87826       -3.09046       -4.33167
C         -0.05477        3.16926       -3.10685
H         -0.12565        3.86880       -2.26772
H         -0.22979        3.79234       -3.99129
C          1.37525        2.51624       -3.17186
H          1.91411        2.87942       -4.05496
H          1.98761        2.86648       -2.34459
C          2.20041        2.33490       -0.19558
C          3.46982        2.61751       -0.65500
C          1.32231        3.35112        0.11291
C          3.81078        3.92506       -0.94330
C          1.67231        4.65797       -0.15595
C          2.88722        4.94416       -0.75710
C          2.92735       -0.41605        0.32523
C          3.56259       -1.28340       -0.53402
C          3.31970       -0.33979        1.64024
C          4.58902       -2.08244       -0.07254
H          3.26094       -1.33088       -1.56741
C          4.34441       -1.13597        2.10281
H          2.82420        0.34691        2.30613
C          4.98137       -2.01679        1.24968
H          5.10593       -2.76316       -0.73040
H          4.66826       -1.07990        3.13028
Pd        -0.20887        0.43475        1.16950
Cl        -1.63991       -0.02322        2.84958
Cl         1.16729        1.57839        2.53967
H          0.96172        5.45973       -0.02619
H          0.34174        3.12357        0.49748
H          4.74843        4.15010       -1.42564
H          4.14796        1.81128       -0.88793
C         -2.37039       -7.23505       -0.61519
C         -1.17130       -6.24915       -0.72821
C         -0.76695       -5.95784       -2.20738
F         -2.75775       -7.25930        0.66867
F         -3.38117       -6.80657       -1.38387
F         -1.97230       -8.45708       -1.00181
F         -0.12290       -6.79811       -0.10989
F         -0.56608       -7.10908       -2.86264
F         -1.73427       -5.23524       -2.78827
F          0.35690       -5.22846       -2.17928
C         -6.84572        2.86054        3.36609
C         -7.19874        1.62816        2.48453
C         -8.24321        1.96819        1.38063
F         -6.25185        3.79256        2.60659
F         -7.96512        3.34669        3.92326
F         -5.99715        2.44416        4.31829
F         -7.73673        0.69868        3.27892
F         -7.79482        2.99100        0.63959
F         -8.38618        0.87886        0.61090
F         -9.41234        2.28248        1.95922
C          7.39557       -1.95959        1.85324
C          6.13430       -2.86116        1.72926
C          5.76604       -3.55802        3.07223
F          7.13391       -0.94681        2.69262
F          8.42677       -2.69202        2.30044
F          7.66446       -1.47643        0.63078
F          6.40399       -3.81843        0.83732
F          5.64663       -2.63647        4.03816
F          4.59230       -4.18286        2.89399
F          6.72153       -4.44692        3.38504
C          4.47511        6.66744       -1.73286
C          2.99393        6.24258       -1.51837
C          2.23007        6.00990       -2.86176
F          5.07656        6.66664       -0.53400
F          5.08296        5.79099       -2.54422
F          4.50595        7.89922       -2.26499
F          2.37414        7.22028       -0.85305
F          2.34241        7.09205       -3.64341
F          2.73110        4.92514       -3.46837
F          0.94515        5.78079       -2.55794
