87
-129.18731823
P         -1.69257       -0.37065       -0.14482
P          1.59843        0.35071       -0.16282
C         -1.42979        0.96039       -1.33959
C          1.35043       -0.65704       -1.62983
C         -0.46156        0.90500       -2.34002
C         -0.25027        2.04168       -3.14434
C         -1.02577        3.17034       -2.94352
C         -1.98856        3.20340       -1.95897
C         -2.18055        2.09719       -1.15522
C          2.13957       -1.76531       -1.81753
C          1.96003       -2.56457       -2.92907
C          0.98416       -2.24533       -3.84927
C          0.17552       -1.13402       -3.67799
C          0.36357       -0.31521       -2.54669
Cl         1.29335        1.00300        2.98354
Cl        -1.39200       -0.82281        3.03264
H         -2.58034        4.09141       -1.80835
H         -2.92081        2.12348       -0.37291
H          2.90181       -2.00556       -1.09517
H          2.57700       -3.43628       -3.07348
H         -0.86105        4.03448       -3.56462
H          0.83695       -2.86863       -4.71492
C         -1.05824       -4.57279       -1.75203
C         -0.44050       -4.19240       -0.56850
C         -0.66694       -2.90900       -0.08765
C         -1.47524       -2.03524       -0.77783
C         -2.10179       -2.42703       -1.93721
C         -1.89244       -3.70292       -2.42702
H         -0.87950       -5.56021       -2.14222
C          0.48524       -5.11222        0.14643
H         -0.21881       -2.59883        0.84039
H         -2.73304       -1.72772       -2.46226
H         -2.36972       -4.01299       -3.34211
C         -5.74782        0.10474        1.87219
C         -5.55833       -0.88676        0.92998
C         -4.32501       -1.03541        0.32381
C         -3.29258       -0.19125        0.66055
C         -3.47992        0.79738        1.59906
C         -4.70953        0.95488        2.22671
H         -6.70805        0.22361        2.34454
H         -6.37016       -1.54529        0.66781
H         -4.16194       -1.80873       -0.40877
H         -2.65963        1.44408        1.86417
C         -4.90615        2.03209        3.23458
C          5.02406       -1.33069        2.32682
C          5.13221       -0.06765        1.77883
C          4.09976        0.44403        1.01567
C          2.96924       -0.30973        0.80553
C          2.85787       -1.56651        1.35446
C          3.88803       -2.10052        2.11801
H          5.82349       -1.72736        2.92916
H          6.01768        0.52200        1.95115
H          4.16568        1.43290        0.59262
H          1.96195       -2.14171        1.19333
C          3.74574       -3.44961        2.72987
C          2.25428        4.69996       -1.28766
C          3.03082        3.71496       -1.86608
C          2.83950        2.39116       -1.51570
C          1.88196        2.06893       -0.58301
C          1.11387        3.04767        0.00331
C          1.27950        4.38061       -0.35234
H          2.39954        5.73115       -1.56113
H          3.78052        3.97600       -2.59491
H          3.42282        1.60619       -1.97114
H          0.37325        2.77713        0.73691
C          0.44744        5.43911        0.28109
Pd        -0.05368        0.05474        1.45937
C          0.79368        2.06048       -4.20678
C         -0.87310       -0.83210       -4.69149
H          1.34458        3.00196       -4.19295
H          1.51759        1.25637       -4.07084
H          0.34552        1.94880       -5.19477
H         -1.58790       -0.09659       -4.32085
H         -0.42770       -0.43852       -5.60598
H         -1.43263       -1.73171       -4.95178
H          1.51275       -4.96264       -0.18884
H          0.45464       -4.94038        1.22349
H          0.22047       -6.15557       -0.03092
H         -5.10269        2.98803        2.74710
H         -5.74712        1.80973        3.89284
H         -4.01898        2.14788        3.85898
H          4.71585       -3.86372        3.00802
H          3.12919       -3.40229        3.62859
H          3.27433       -4.14609        2.03484
H         -0.54063        5.05671        0.54191
H          0.91785        5.80696        1.19394
H          0.30708        6.28584       -0.39232
