111
-148.55911284
P         -2.69403       -1.91601       -0.32563
P          0.13369       -0.50617       -0.45837
C         -1.86419       -1.71645       -1.92549
C         -0.61002       -1.14641       -1.97141
C         -3.62649       -3.51029       -0.21666
C         -2.90043       -4.51441        0.65183
C         -2.47968       -2.12012       -3.09301
H         -3.46786       -2.54831       -3.05407
C         -1.83071       -1.95747       -4.30498
H         -2.31033       -2.27243       -5.21734
C         -0.57162       -1.38956       -4.34750
H         -0.06827       -1.26012       -5.29146
C          0.03898       -0.97785       -3.17658
H          1.01377       -0.51623       -3.19295
Pd        -1.06607       -1.50786        1.25227
Cl        -2.54737       -2.02315        2.85641
Cl         0.61993       -1.04946        2.66388
C         -4.99834       -3.06630        0.32470
C         -4.06545       -0.70744       -0.03407
H         -1.90527       -4.73409        0.25773
H         -2.77352       -4.13013        1.66505
H         -3.45297       -5.45422        0.72291
H         -4.98985       -3.15512        1.41986
H         -5.78769       -3.75093       -0.02130
H         -3.90823       -0.31012        0.97778
C         -5.32232       -1.59718       -0.07093
C         -4.05527        0.40837       -1.05640
H         -3.72422       -3.88672       -1.24280
H         -5.74071       -1.57567       -1.08665
H         -6.10584       -1.17928        0.57936
H         -4.88586        1.10074       -0.90092
H         -3.12714        0.98043       -1.00754
H         -4.14061        0.00809       -2.06827
C         -1.37735        3.74121        0.17057
C         -0.86194        3.00219        1.26844
C         -0.41228        1.71523        1.03394
C         -0.39901        1.18720       -0.22921
C         -0.76811        1.94308       -1.31025
C         -1.22184        3.24160       -1.15042
O         -2.12159        4.92686        0.39964
C         -0.77498        3.53811        2.70641
H         -0.07956        1.09249        1.84688
H         -0.71540        1.50011       -2.29001
C         -1.52038        4.05715       -2.41910
C          4.68180       -0.63148       -0.36997
C          4.00963        0.48303       -0.93853
C          2.62480        0.48335       -0.93190
C          1.91783       -0.59435       -0.46594
C          2.56110       -1.72502       -0.03685
C          3.94490       -1.79202       -0.01135
O          6.06968       -0.55382       -0.08701
C          4.72272        1.69202       -1.56727
H          2.07750        1.34350       -1.27976
H          1.96582       -2.55630        0.30157
C          4.59175       -3.12320        0.40722
C         -0.97341        5.06185        2.77714
C         -1.83525        2.83893        3.57395
C          0.62719        3.23630        3.28057
C         -2.80377        3.52527       -3.07875
C         -1.67679        5.55942       -2.12682
C         -0.34330        3.90940       -3.40875
C         -3.50651        4.67690        0.57363
H         -1.98080        5.34229        2.47882
H         -0.81433        5.43225        3.78958
H         -0.27486        5.57142        2.11439
H         -1.78199        3.18255        4.60656
H         -2.83937        3.03884        3.20481
H         -1.69016        1.75897        3.57219
H          0.80504        2.16630        3.37377
H          1.40309        3.65193        2.63826
H          0.74263        3.67157        4.27279
H         -3.02949        4.07630       -3.99132
H         -2.70070        2.47251       -3.34021
H         -3.65762        3.61941       -2.41039
H         -1.79193        6.12915       -3.04862
H         -2.55120        5.75216       -1.50981
H         -0.80419        5.94076       -1.59765
H         -0.23122        2.88325       -3.75492
H         -0.49485        4.53408       -4.28867
H          0.59305        4.21060       -2.93968
H         -4.02082        5.61899        0.76457
H         -3.91917        4.21664       -0.32271
H         -3.66191        4.00422        1.41568
C          6.33819       -0.02975        1.20298
C          4.06449        2.02678       -2.92456
C          4.58985        2.90598       -0.63253
C          6.21029        1.41522       -1.84550
C          6.08618       -3.18890        0.04694
C          4.41828       -3.31893        1.92266
C          3.89886       -4.28722       -0.33523
H          4.07229        1.15665       -3.58042
H          3.03161        2.35002       -2.80589
H          4.59972        2.83172       -3.42764
H          5.05625        2.71346        0.33166
H          5.06572        3.78519       -1.06606
H          3.54233        3.14602       -0.45224
H          6.76395        1.26788       -0.92133
H          6.32718        0.51738       -2.45139
H          6.67206        2.24709       -2.37685
H          6.23562       -2.98157       -1.01208
H          6.66111       -2.46045        0.61360
H          6.49947       -4.17388        0.26275
H          4.84159       -4.27024        2.24381
H          4.91255       -2.52638        2.48095
H          3.36422       -3.30978        2.19833
H          3.93658       -4.13206       -1.41311
H          2.85444       -4.38842       -0.04529
H          4.38932       -5.23504       -0.11480
H          5.87190       -0.65302        1.96414
H          7.41604       -0.00771        1.36510
H          5.94081        0.98031        1.28663
