111
-148.55457280
P         -1.72958       -2.73559       -0.13378
P         -0.37431        0.08379       -0.58503
C         -1.53974       -2.08215       -1.81748
C         -1.01736       -0.81984       -2.00487
C         -0.67842       -4.23531        0.11550
C          0.36984       -3.97134        1.17620
C         -1.89200       -2.84760       -2.91070
H         -2.26611       -3.84716       -2.76166
C         -1.74277       -2.33505       -4.18792
H         -2.02157       -2.93113       -5.04149
C         -1.23204       -1.06407       -4.37075
H         -1.11076       -0.66790       -5.36549
C         -0.85781       -0.30714       -3.27487
H         -0.42442        0.67295       -3.39907
Pd        -1.33876       -0.92692        1.24857
Cl        -2.59087       -1.87956        2.84268
Cl        -0.72000        0.85852        2.46702
C         -1.69597       -5.33137        0.49410
C         -3.40548       -3.46083        0.17141
H          0.98870       -4.85363        1.35617
H          1.02840       -3.14740        0.89233
H         -0.10173       -3.69825        2.12255
H         -1.67939       -5.46341        1.58460
H         -1.38629       -6.30155        0.07731
H         -3.65527       -3.21389        1.21133
C         -3.14125       -4.97181        0.04452
C         -4.45939       -2.90916       -0.76498
H         -0.21662       -4.44984       -0.85712
H         -3.28981       -5.27297       -1.00151
H         -3.88614       -5.53989        0.62271
H         -4.53110       -1.82219       -0.68230
H         -4.22504       -3.14275       -1.80389
H         -5.44363       -3.33104       -0.54924
C         -0.92893        4.59990       -0.65087
C          0.32703        4.04625       -1.00880
C          0.46987        2.66869       -0.98011
C         -0.59081        1.85552       -0.67750
C         -1.83194        2.38017       -0.43069
C         -2.04502        3.74902       -0.44576
O         -1.05723        6.00274       -0.46787
C          1.53388        4.92004       -1.38580
H          1.42234        2.20857       -1.17798
H         -2.63472        1.69911       -0.20388
C         -3.46460        4.28232       -0.19688
C          3.84927       -1.36791        0.30045
C          3.33820       -0.23874        0.99051
C          2.04789        0.17482        0.70506
C          1.31748       -0.42348       -0.28652
C          1.84494       -1.44917       -1.02719
C          3.12331       -1.92232       -0.78472
O          5.06253       -1.97424        0.72175
C          4.13452        0.51712        2.06488
H          1.57587        0.94901        1.28456
H          1.23234       -1.89341       -1.79158
C          3.69279       -3.04066       -1.67187
C          1.08367        6.18095       -2.14567
C          2.29791        5.31354       -0.11256
C          2.49912        4.15134       -2.31651
C         -4.52173        3.28511       -0.72420
C         -3.67740        4.46615        1.31366
C         -3.69962        5.61221       -0.93585
C         -0.82353        6.43919        0.86544
H          0.45941        6.81717       -1.52299
H          1.94095        6.77242       -2.46612
H          0.50793        5.91081       -3.03027
H          1.67316        5.89567        0.55967
H          2.62757        4.42704        0.42762
H          3.17778        5.90961       -0.35340
H          1.96827        3.74768       -3.17831
H          3.28535        4.80917       -2.68630
H          2.98932        3.32895       -1.79727
H         -5.52140        3.71523       -0.66695
H         -4.32697        3.02832       -1.76514
H         -4.53665        2.36596       -0.14051
H         -4.68118        4.83345        1.52537
H         -3.54584        3.52000        1.83824
H         -2.96511        5.17420        1.72987
H         -4.72604        5.95523       -0.80820
H         -3.04354        6.39541       -0.56529
H         -3.51086        5.49643       -2.00258
H         -0.03489        7.19149        0.86914
H         -1.72777        6.89568        1.26723
H         -0.52973        5.59816        1.49488
C          4.89286       -2.96434        1.72867
C          5.64964        0.43300        1.80553
C          3.76354        2.01762        2.05222
C          3.79750       -0.06462        3.44605
C          5.21421       -2.88152       -1.84409
C          3.37283       -4.40756       -1.04851
C          3.06781       -2.99020       -3.08470
H          6.00963       -0.59005        1.87460
H          5.88907        0.80386        0.80946
H          6.20486        1.02689        2.53115
H          4.40543        2.58125        2.72882
H          3.88357        2.43357        1.05241
H          2.73642        2.18487        2.37238
H          2.73165        0.02891        3.65320
H          4.05303       -1.12037        3.50170
H          4.34153        0.45677        4.23312
H          5.73289       -2.98627       -0.89413
H          5.61299       -3.63533       -2.52247
H          5.45391       -1.89911       -2.24953
H          3.79509       -4.49568       -0.05070
H          2.29629       -4.55215       -0.96869
H          3.77557       -5.21723       -1.65650
H          2.01093       -3.25302       -3.06726
H          3.56160       -3.69682       -3.75135
H          3.16768       -1.99539       -3.51801
H          3.83313       -3.12021        1.93474
H          5.34123       -3.90070        1.39665
H          5.39662       -2.65113        2.64277
