111
-148.55522317
P         -2.35999       -2.31647       -0.29129
P          0.00631       -0.21126       -0.52686
C         -1.61062       -1.97717       -1.90489
C         -0.59393       -1.05339       -2.00138
C         -2.57252       -4.13732       -0.04546
C         -1.92310       -4.57730        1.24838
C         -2.04604       -2.64173       -3.03341
H         -2.83377       -3.37260       -2.94985
C         -1.46513       -2.36970       -4.26014
H         -1.80509       -2.88749       -5.14214
C         -0.45109       -1.43589       -4.35518
H          0.00112       -1.22369       -5.30997
C         -0.01355       -0.77531       -3.22097
H          0.78100       -0.04730       -3.27502
Pd        -1.15638       -1.11010        1.26576
Cl        -2.67892       -1.71434        2.79954
Cl         0.12244        0.09586        2.65857
C         -4.10440       -4.31966       -0.07279
C         -4.11969       -1.75741       -0.15317
H         -2.03574       -5.65222        1.40906
H         -0.85568       -4.34321        1.25764
H         -2.37873       -4.06699        2.09882
H         -4.38576       -5.15626        0.58328
H         -4.42892       -4.61339       -1.08184
H         -4.13601       -0.96589        0.60822
C         -4.84770       -3.02099        0.34850
C         -4.63742       -1.23233       -1.47527
H         -2.09641       -4.63300       -0.90241
H         -5.88084       -3.02472       -0.02847
H         -4.93167       -2.99104        1.44488
H         -4.64555       -2.02284       -2.22735
H         -5.65872       -0.85467       -1.38494
H         -4.00858       -0.42400       -1.85558
C         -1.20896        4.17665       -0.51857
C          0.09401        3.82112       -0.95233
C          0.45001        2.48261       -0.93607
C         -0.45249        1.51779       -0.57132
C         -1.74826        1.84596       -0.26652
C         -2.16960        3.16555       -0.26135
O         -1.53579        5.54429       -0.31644
C          1.11770        4.87156       -1.41204
H          1.44474        2.17372       -1.20530
H         -2.43058        1.05107       -0.01912
C         -3.64014        3.47536        0.06062
C          4.41018       -1.08476        0.25879
C          3.82476        0.09277        0.78965
C          2.48280        0.32773        0.54099
C          1.75325       -0.50832       -0.26243
C          2.34067       -1.59439       -0.85834
C          3.67852       -1.88846       -0.65229
O          5.70953       -1.48329        0.67119
C          4.60320        1.08954        1.66207
H          1.97669        1.15832        1.00151
H          1.72994       -2.22317       -1.48278
C          4.30275       -3.08562       -1.38630
C          0.42073        6.01965       -2.16464
C          1.87332        5.42210       -0.19343
C          2.14553        4.24983       -2.38422
C         -4.55896        2.33828       -0.44023
C         -3.80691        3.60258        1.58274
C         -4.10795        4.76436       -0.63914
C         -1.30510        6.00747        1.00828
H          1.14728        6.73798       -2.54355
H         -0.14868        5.63463       -3.00994
H         -0.26693        6.55757       -1.51628
H          1.19897        5.92028        0.49786
H          2.36808        4.61772        0.34875
H          2.63278        6.14203       -0.49747
H          1.64357        3.74488       -3.20917
H          2.79200        5.01864       -2.80689
H          2.79091        3.53095       -1.88146
H         -5.60824        2.61201       -0.33223
H         -4.37477        2.12708       -1.49319
H         -4.40966        1.42175        0.12753
H         -3.18381        4.39840        1.98347
H         -4.84194        3.81863        1.84603
H         -3.51828        2.67650        2.07962
H         -5.16764        4.94480       -0.46022
H         -3.56248        5.63334       -0.28100
H         -3.95285        4.69394       -1.71521
H         -0.81838        5.23309        1.60263
H         -0.67401        6.89561        0.97719
H         -2.25125        6.28155        1.47401
C          5.71889       -2.31213        1.82697
C          6.09392        1.12483        1.27943
C          4.05795        2.52199        1.46504
C          4.44175        0.70027        3.13932
C          5.79455       -2.84107       -1.67768
C          4.13074       -4.35152       -0.53323
C          3.60906       -3.31138       -2.74935
H          6.57570        0.16874        1.46665
H          6.21277        1.35676        0.22156
H          6.62824        1.88062        1.85458
H          4.68151        3.24893        1.98494
H          4.04584        2.78656        0.40815
H          3.04839        2.62772        1.85898
H          4.83025       -0.29769        3.32844
H          4.97178        1.39747        3.78762
H          3.39012        0.70517        3.42522
H          6.36881       -2.75170       -0.75889
H          6.22103       -3.66178       -2.25390
H          5.92872       -1.92148       -2.24628
H          3.07574       -4.54744       -0.34284
H          4.55046       -5.22188       -1.03699
H          4.62696       -4.24899        0.42881
H          2.58146       -3.65100       -2.62840
H          4.13113       -4.07353       -3.32742
H          3.60034       -2.39350       -3.33663
H          4.69951       -2.51064        2.16045
H          6.21644       -3.25409        1.59658
H          6.27286       -1.82115        2.62681
