171
-217.84678796
P         -1.58810        0.37935       -0.36044
P          1.64095       -0.35529       -0.21908
C         -0.80573        1.39396       -1.61905
C          0.99533       -1.28700       -1.61299
C          0.03527        0.81810       -2.56459
C          0.69330        1.65641       -3.48490
C          0.46471        3.02185       -3.44091
C         -0.38862        3.57062       -2.50698
C         -1.01846        2.75051       -1.59195
C          1.21431       -2.64250       -1.64853
C          0.67991       -3.40639       -2.66704
C         -0.08652       -2.80318       -3.64170
C         -0.31960       -1.43794       -3.62460
C          0.24416       -0.65571       -2.59817
Cl         1.43582        0.23635        3.00159
Cl        -1.73525       -0.43040        2.79696
C         -1.15595       -0.82637       -4.69370
C          1.61857        1.10086       -4.51040
H         -0.56283        4.63397       -2.48882
H         -1.68183        3.17100       -0.85392
H          1.80704       -3.10677       -0.87735
H          0.85846       -4.46881       -2.69621
H          0.96738        3.65810       -4.14973
H         -0.51734       -3.39600       -4.43094
C         -3.71138       -3.28040       -1.94644
C         -2.75788       -3.44167       -0.94929
C         -2.10598       -2.30619       -0.48555
C         -2.38464       -1.07714       -1.02860
C         -3.31509       -0.93592       -2.02882
C         -4.00698       -2.04332       -2.50528
H         -4.25763       -4.14264       -2.28156
H         -1.38549       -2.36733        0.31135
H         -3.50780        0.04950       -2.41809
C         -4.63360        2.69964        2.08211
C         -3.29230        3.05319        2.18008
C         -2.37683        2.35858        1.39977
C         -2.78849        1.33665        0.58115
C         -4.11447        0.98980        0.51256
C         -5.06799        1.66834        1.25773
H         -5.35596        3.23523        2.66710
H         -1.32929        2.60337        1.44295
H         -4.41074        0.17132       -0.11944
C          4.39603       -2.85495        2.38024
C          3.05065       -3.19736        2.31257
C          2.23054       -2.44413        1.48285
C          2.73513       -1.37775        0.78093
C          4.06326       -1.04351        0.87424
C          4.92610       -1.78455        1.67101
H          5.05329       -3.42638        3.00811
H          1.18315       -2.67846        1.39626
H          4.41982       -0.18843        0.32885
C          3.85679        3.42796       -1.31860
C          2.81937        3.50208       -0.39824
C          2.14531        2.32856       -0.08542
C          2.48718        1.14820       -0.69647
C          3.50529        1.09333       -1.61676
C          4.21898        2.24101       -1.94291
H          4.41445        4.31918       -1.53994
H          1.35677        2.32136        0.64674
H          3.74540        0.14364       -2.06387
Pd        -0.05970       -0.04699        1.35096
C         -3.73830       -5.30012        0.40973
C         -2.49026       -4.83210       -0.35870
C         -1.29235       -4.80900        0.60941
C         -2.17414       -5.82463       -1.49360
H         -3.57823       -6.28246        0.85377
H         -3.98051       -4.60187        1.21077
H         -4.60369       -5.36608       -0.24899
H         -1.07855       -5.80907        0.98622
H         -0.39820       -4.44220        0.10649
H         -1.49336       -4.17062        1.46927
H         -1.93616       -6.81025       -1.09392
H         -3.01863       -5.93808       -2.17193
H         -1.32015       -5.48236       -2.07684
C         -6.47223       -2.23164       -2.87190
C         -5.12526       -1.92253       -3.55023
C         -4.88306       -2.92369       -4.69624
C         -5.19086       -0.50425       -4.15034
H         -7.29619       -2.14262       -3.57966
H         -6.48501       -3.24319       -2.46718
H         -6.65698       -1.54141       -2.04907
H         -5.64966       -2.82682       -5.46489
H         -3.91496       -2.75162       -5.16462
H         -4.90341       -3.95238       -4.33923
H         -5.42745        0.23641       -3.38696
H         -4.24412       -0.23031       -4.61478
H         -5.96496       -0.44357       -4.91519
C         -3.89853        4.63368        4.08175
C         -2.80156        4.18211        3.09775
C         -2.38836        5.38362        2.23121
C         -1.59372        3.69107        3.92162
H         -4.25413        3.79521        4.68041
H         -3.51622        5.39180        4.76519
H         -4.74781        5.06870        3.55561
H         -3.23885        5.75922        1.66256
H         -2.00534        6.19767        2.84634
H         -1.61315        5.10358        1.52010
H         -1.85433        2.79906        4.49081
H         -0.74604        3.44357        3.28504
H         -1.26375        4.45616        4.62400
C         -6.67324       -0.23539        1.54800
C         -6.53985        1.24616        1.14670
C         -7.00996        1.43164       -0.30799
C         -7.44633        2.08568        2.06677
H         -7.71283       -0.55958        1.50460
H         -6.09645       -0.88011        0.88577
H         -6.31180       -0.39213        2.56406
H         -8.05571        1.14608       -0.42031
H         -6.90820        2.47208       -0.61591
H         -6.42239        0.82222       -0.99336
H         -7.40127        3.14247        1.80426
H         -8.48551        1.76873        1.97913
H         -7.15475        1.97505        3.11104
C          2.13048       -5.51382        2.12295
C          2.45660       -4.37285        3.10116
C          1.17054       -3.91647        3.81985
C          3.43913       -4.89728        4.16644
H          3.03436       -5.86544        1.62581
H          1.67817       -6.35856        2.64216
H          1.43771       -5.18030        1.35231
H          0.76249       -4.71777        4.43547
H          1.37416       -3.06324        4.46647
H          0.39749       -3.62088        3.11258
H          4.33765       -5.30895        3.70758
H          3.73297       -4.10152        4.85076
H          2.98174       -5.69143        4.75646
C          6.71602       -1.04914        3.26163
C          6.41534       -1.43547        1.80234
C          6.80295       -0.25305        0.89204
C          7.26495       -2.65514        1.39983
H          7.76399       -0.77688        3.38577
H          6.10684       -0.19848        3.56673
H          6.50199       -1.87371        3.94065
H          6.60175       -0.48384       -0.15392
H          6.25117        0.64766        1.16066
H          7.86526       -0.02666        0.98214
H          7.07215       -3.50663        2.05121
H          7.04179       -2.95832        0.37702
H          8.32877       -2.42575        1.45924
C          2.24599        5.91598       -0.79958
C          2.48303        4.83872        0.27565
C          3.65652        5.25494        1.17949
C          1.21043        4.72762        1.13620
H          3.14109        6.08974       -1.39520
H          1.44716        5.61464       -1.47600
H          1.96216        6.86469       -0.34436
H          3.84322        4.49693        1.94004
H          4.57179        5.38138        0.60205
H          3.44528        6.19700        1.68512
H          0.95097        5.69215        1.57231
H          0.36658        4.39459        0.53296
H          1.35018        4.02372        1.95615
C          5.22339        3.27665       -4.00569
C          5.41772        2.21909       -2.90216
C          5.58424        0.84053       -3.57078
C          6.69806        2.53620       -2.10808
H          6.05051        3.25434       -4.71509
H          4.30250        3.09777       -4.55861
H          5.17272        4.28203       -3.58990
H          6.42158        0.84779       -4.26842
H          5.78169        0.06558       -2.83043
H          4.69053        0.56429       -4.12936
H          7.57419        2.51919       -2.75606
H          6.64141        3.52165       -1.64686
H          6.85062        1.80529       -1.31476
H         -0.59200       -0.72918       -5.62236
H          1.97268        0.10745       -4.23172
H         -1.50965        0.16475       -4.40656
H         -2.03244       -1.44136       -4.89829
H          2.49337        1.73970       -4.63062
H          1.12517        1.02499       -5.48026
