59
-75.80784417
Cl         1.64559        0.62734        2.26986
P          1.60221       -0.12471       -0.87227
P         -1.61746       -0.08999       -0.78850
C          0.57796        0.12943       -2.38810
H          0.33694        1.19086       -2.48261
H          1.17137       -0.15072       -3.26417
C         -0.67343       -0.68959       -2.25648
H         -0.43125       -1.74490       -2.10466
H         -1.31526       -0.61923       -3.14019
C          2.64241       -1.64204       -1.14305
H          2.49631       -1.87697       -2.20613
C          2.95561        1.12997       -0.68766
H          3.03983        1.32475        0.38833
C         -3.04188       -1.19842       -0.37325
H         -3.23247       -1.02439        0.69347
C         -2.61933        1.39044       -1.28296
H         -2.04028        1.96535       -2.01599
C          4.08335       -1.14589       -0.92929
H          4.39623       -1.36231        0.09922
H          4.78031       -1.70732       -1.56973
C          4.20236        0.37962       -1.18588
H          4.31967        0.56387       -2.26270
H          5.10937        0.78925       -0.71557
C         -4.20243       -0.63927       -1.22716
H         -4.48969       -1.38877       -1.97799
H         -5.09523       -0.51029       -0.59766
C         -3.84427        0.70796       -1.92791
H         -4.70525        1.39293       -1.91255
H         -3.63793        0.52377       -2.99353
C          2.23342       -2.84594       -0.29487
H          2.82180       -3.71891       -0.61015
H          1.19396       -3.10337       -0.53529
C          2.67616        2.43300       -1.42607
H          3.58564        3.04989       -1.42188
H          2.48607        2.20927       -2.48373
C         -2.74120       -2.67356       -0.60532
H         -3.67192       -3.25022       -0.51035
H         -2.42226       -2.81274       -1.64619
C         -2.99633        2.26810       -0.09042
H         -3.82663        2.92639       -0.38208
H         -3.40392        1.62522        0.70080
C          2.38178       -2.65578        1.20816
H          1.96863       -3.49850        1.76749
H          1.86977       -1.75818        1.55170
H          3.42664       -2.55914        1.50597
C          1.51752        3.21309       -0.82751
H          0.60109        2.62339       -0.83828
H          1.31959        4.13984       -1.37082
H          1.71449        3.47591        0.21360
C         -1.69525       -3.21777        0.35444
H         -1.45840       -4.26564        0.15677
H         -2.03376       -3.14530        1.38978
H         -0.76725       -2.65065        0.28641
C         -1.85102        3.10812        0.45138
H         -1.44563        3.76667       -0.31886
H         -2.16663        3.73757        1.28650
H         -1.03409        2.48469        0.81337
Cl        -1.57232        0.25151        2.39004
Pd         0.02968        0.02144        0.83359
