87
-129.18861893
P         -1.58698       -0.31594       -0.27065
P          1.61603        0.36303       -0.04855
C         -1.30375        0.97691       -1.49180
C          1.44860       -0.67724       -1.51087
C         -0.29595        0.85534       -2.44274
C         -0.06750        1.92561       -3.33012
C         -0.86539        3.05432       -3.24906
C         -1.86799        3.15029       -2.30824
C         -2.08034        2.10836       -1.42754
C          2.21816       -1.81366       -1.57660
C          2.08966       -2.68349       -2.64110
C          1.17585       -2.41235       -3.63625
C          0.38584       -1.27637       -3.58981
C          0.53094       -0.37896       -2.51351
Cl         1.20045        0.53537        3.20506
Cl        -1.46128       -1.30679        2.82285
H         -2.47668        4.03790       -2.25299
H         -2.85698        2.17979       -0.68453
H          2.92382       -2.02496       -0.79071
H          2.69319       -3.57516       -2.68720
H         -0.68752        3.86885       -3.93058
H          1.06185       -3.09378       -4.46223
C         -1.66507       -4.45365       -2.14241
C         -0.84060       -4.21712       -1.05094
C         -0.85238       -2.95360       -0.47343
C         -1.64172       -1.95504       -0.99500
C         -2.45127       -2.19457       -2.08035
C         -2.46680       -3.45227       -2.65449
H         -1.67281       -5.43262       -2.59048
C          0.01850       -5.29390       -0.48834
H         -0.23305       -2.75213        0.38409
H         -3.05549       -1.39480       -2.47917
H         -3.09891       -3.64796       -3.50508
C         -5.37630        0.57906        2.09593
C         -5.34398       -0.50104        1.23612
C         -4.19812       -0.77254        0.51268
C         -3.09505        0.03629        0.65343
C         -3.12405        1.11103        1.51249
C         -4.26963        1.40388        2.24207
H         -6.26433        0.78658        2.66832
H         -6.20868       -1.13603        1.13351
H         -4.15558       -1.61863       -0.15317
H         -2.24680        1.72570        1.62929
C         -4.28323        2.54642        3.19535
C          5.30114       -0.88059        2.32502
C          5.28570        0.33360        1.66749
C          4.16822        0.71465        0.94905
C          3.07804       -0.12139        0.88871
C          3.09043       -1.33046        1.54590
C          4.20101       -1.72571        2.28126
H          6.17120       -1.18030        2.88399
H          6.14278        0.98516        1.71593
H          4.13968        1.66330        0.43888
H          2.22609       -1.97247        1.50045
C          4.21128       -3.04029        2.97874
C          1.61713        4.79911       -1.02712
C          2.48729        3.95079       -1.68359
C          2.49488        2.60149       -1.38191
C          1.63877        2.11702       -0.42114
C          0.78176        2.96151        0.24597
C          0.74655        4.31624       -0.05970
H          1.60665        5.84939       -1.26378
H          3.15489        4.33798       -2.43576
H          3.15321        1.92095       -1.89877
H          0.12849        2.56830        1.00612
C         -0.18696        5.22591        0.65805
Pd        -0.05584       -0.17525        1.48890
C          1.01721        1.87462       -4.34951
C         -0.60338       -1.03578       -4.67703
H          0.60628        1.71565       -5.34720
H          1.58026        2.80887       -4.36419
H          1.72350        1.06993       -4.14261
H         -1.15279       -1.94876       -4.91083
H         -1.33414       -0.27789       -4.39286
H         -0.10625       -0.70147       -5.58840
H          0.94264       -4.88295       -0.07875
H         -0.49892       -5.82329        0.31286
H          0.29108       -6.02171       -1.25392
H         -3.88125        2.24522        4.16370
H         -3.67829        3.37467        2.82319
H         -5.29641        2.91942        3.35153
H          3.23141       -3.26378        3.40337
H          4.47066       -3.84377        2.28790
H          4.93519       -3.04983        3.79472
H         -0.45191        6.08588        0.04131
H         -1.11185        4.70965        0.92030
H          0.26483        5.59643        1.57919
