105
-153.07272817
Cl        -0.81421        2.14987       -2.84969
Pd         0.07438        1.50826       -0.88587
P          1.36029        0.73010        0.89323
N          0.67524       -0.53099        1.90587
C          0.04934       -1.74639        1.66860
C         -0.10211       -2.32384        0.38387
C         -0.85030       -3.51072        0.24061
C         -0.99977       -4.10783       -1.13947
C         -1.55447       -5.54095       -1.16107
C         -2.71218       -5.69898       -0.17116
C         -2.24971       -5.37853        1.25811
C         -1.42285       -4.12176        1.35805
C         -1.21786       -3.56577        2.61363
C         -0.49815       -2.40946        2.76656
H         -0.37577       -1.97774        3.74473
H         -1.65035       -4.04768        3.47413
H         -3.11567       -5.28680        1.92627
H         -3.52504       -5.01818       -0.45316
H         -1.86978       -5.82227       -2.17576
H         -1.65118       -3.45161       -1.72848
C          0.67156       -1.84547       -0.78746
C          0.00494       -1.23801       -1.88616
C          0.72486       -1.02317       -3.06476
C          2.03697       -1.40537       -3.17164
C          2.68983       -2.04027       -2.12225
C          4.09687       -2.53337       -2.33543
C          4.43751       -3.73937       -1.44917
C          4.11205       -3.43139        0.01528
C          2.63130       -3.05507        0.20451
C          2.00974       -2.26111       -0.92339
H          2.04076       -3.96903        0.34057
H          4.74568       -2.60383        0.35288
H          5.49171       -4.02858       -1.56571
H          4.79518       -1.71424       -2.13260
H          2.57265       -1.23043       -4.08924
H          0.23470       -0.53605       -3.88930
N         -1.33487       -0.83433       -1.82486
P         -1.85543        0.18246       -0.47767
C         -2.80106       -0.73509        0.73526
C         -3.58302       -1.77549        0.29484
C         -4.37228       -2.47001        1.19402
C         -4.37994       -2.12314        2.53826
C         -3.60667       -1.04799        2.95611
C         -2.82147       -0.35208        2.05503
H         -2.21974        0.48065        2.37813
H         -3.62040       -0.76147        3.99380
C         -5.22761       -2.86801        3.50935
H         -4.98505       -3.28816        0.85649
H         -3.56821       -2.04003       -0.75064
C         -2.97861        1.46730       -1.04084
C         -2.96661        2.69740       -0.42650
C         -3.83276        3.68647       -0.85519
C         -4.72458        3.44433       -1.89132
C         -4.72342        2.19383       -2.49468
C         -3.85549        1.20580       -2.06573
H         -3.86128        0.23094       -2.52610
H         -5.40401        1.99968       -3.30598
C         -5.63393        4.51958       -2.37534
H         -3.81700        4.65683       -0.38909
H         -2.27502        2.88371        0.37979
H         -1.67488       -0.36257       -2.65309
H          0.87878       -0.28753        2.86773
C          1.31542        2.22122        1.89588
C          0.09411        2.64723        2.36048
C          0.00839        3.80499        3.11230
C          1.14704        4.54679        3.39640
C          2.37250        4.09587        2.92398
C          2.45487        2.93853        2.17203
H          3.40330        2.59718        1.79118
H          3.26238        4.66001        3.14533
C          1.05994        5.78221        4.22331
H         -0.94590        4.14058        3.48088
H         -0.78778        2.07413        2.12623
C          3.08739        0.38434        0.55927
C          3.66620        0.71887       -0.64147
C          5.01609        0.49868       -0.84075
C          5.79956       -0.04584        0.16741
C          5.20013       -0.36835        1.37745
C          3.84754       -0.15089        1.57223
H          3.37969       -0.39185        2.51377
H          5.79736       -0.79612        2.16451
C          7.24465       -0.32141       -0.06153
H          5.47104        0.75469       -1.78240
H          3.06440        1.16923       -1.41305
Cl         1.70268        3.05608       -1.06484
H         -1.66163       -6.21552        1.65306
H         -0.75464       -6.24415       -0.89688
H         -3.14049       -6.70975       -0.22819
H         -0.02591       -4.07847       -1.64413
H          4.38084       -4.28155        0.65784
H          2.50415       -2.48999        1.13581
H          4.23725       -2.78434       -3.39456
H          3.85295       -4.60830       -1.77681
H         -5.39915       -3.89306        3.17762
H         -4.75248       -2.91380        4.49034
H         -6.19853       -2.38490        3.62682
H         -6.55677        4.10246       -2.78082
H         -5.90551        5.19944       -1.56658
H         -5.15530        5.10547       -3.16117
H          1.85154        6.48650        3.96366
H          0.10533        6.28875        4.07413
H          1.15385        5.54590        5.28413
H          7.67748        0.39963       -0.75636
H          7.80935       -0.26335        0.86999
H          7.38660       -1.31895       -0.47983
