105
-153.06529010
Cl        -0.54444        2.82712       -2.49294
Pd         0.15058        1.67517       -0.69092
P          1.20647        0.37354        1.01887
N          1.30150       -1.38969        1.18256
C          0.29533       -2.37115        1.25253
C         -0.03933       -3.08057        0.07162
C         -1.01009       -4.09390        0.10052
C         -1.38660       -4.77327       -1.19239
C         -2.19056       -6.07001       -1.00569
C         -3.28599       -5.88932        0.05115
C         -2.68049       -5.49256        1.40753
C         -1.62760       -4.41758        1.31038
C         -1.26375       -3.73439        2.46746
C         -0.32302       -2.73447        2.44611
H         -0.05989       -2.22324        3.35288
H         -1.73832       -4.00094        3.39673
H         -3.46990       -5.15487        2.09127
H         -3.98137       -5.10722       -0.27891
H         -2.62193       -6.40335       -1.96009
H         -1.96287       -4.06693       -1.80169
C          0.52651       -2.56983       -1.20369
C         -0.17657       -1.50761       -1.82167
C          0.44213       -0.79173       -2.84397
C          1.69701       -1.14162       -3.27402
C          2.39615       -2.19605       -2.69241
C          3.78265       -2.50863       -3.19204
C          4.63769       -3.25731       -2.15842
C          3.86618       -4.45322       -1.58907
C          2.56186       -4.00248       -0.90943
C          1.81634       -2.91333       -1.64266
H          1.88862       -4.85866       -0.77620
H          4.49431       -5.02199       -0.88916
H          4.90070       -2.57329       -1.34149
H          4.27642       -1.57627       -3.49403
H          2.16308       -0.58439       -4.06906
H         -0.06698        0.05452       -3.26918
N         -1.44341       -1.17328       -1.33702
P         -1.83308        0.45967       -0.82381
C         -2.25247        0.61792        0.91744
C         -2.37377       -0.49929        1.70570
C         -2.63121       -0.36821        3.05736
C         -2.76553        0.88632        3.63308
C         -2.64492        2.00593        2.82211
C         -2.37903        1.87100        1.47164
H         -2.23173        2.74367        0.85520
H         -2.73931        2.98581        3.25791
C         -3.03927        1.02031        5.09048
H         -2.72140       -1.24327        3.67791
H         -2.24799       -1.47516        1.27064
C         -3.05972        1.17509       -1.91638
C         -3.92983        2.16058       -1.51399
C         -4.83413        2.68950       -2.41648
C         -4.86970        2.24045       -3.72980
C         -3.99329        1.23494       -4.11422
C         -3.09000        0.70737       -3.20834
H         -2.40932       -0.07676       -3.49963
H         -4.02105        0.86826       -5.12604
C         -5.85746        2.79689       -4.69536
H         -5.52010        3.45870       -2.10500
H         -3.91042        2.50940       -0.49593
H         -1.89459       -1.82287       -0.70856
H          1.84860       -1.46939        0.33061
C          0.86795        1.17792        2.58211
C          0.88744        0.43369        3.73592
C          0.63354        1.04003        4.95290
C          0.36426        2.40062        5.01925
C          0.39134        3.14422        3.84711
C          0.64693        2.53366        2.63362
H          0.70651        3.11213        1.72653
H          0.21399        4.20517        3.89126
C          0.09991        3.05984        6.32772
H          0.64417        0.45888        5.85907
H          1.13051       -0.61316        3.67887
C          2.92524        0.72986        0.60479
C          3.38658        0.39419       -0.64444
C          4.70496        0.63791       -0.98139
C          5.56972        1.22292       -0.06694
C          5.08872        1.54222        1.19580
C          3.76935        1.29713        1.52922
H          3.39416        1.54720        2.50803
H          5.75435        1.98536        1.91668
C          6.99558        1.46485       -0.42116
H          5.06984        0.37700       -1.95995
H          2.71192       -0.05656       -1.35262
Cl         1.83956        3.13266       -0.38199
H         -2.23572       -6.37358        1.88537
H         -1.51414       -6.87491       -0.69196
H         -3.89169       -6.80186        0.14444
H         -0.47278       -4.97254       -1.76628
H          3.62989       -5.15012       -2.40290
H          2.78222       -3.64899        0.10481
H          3.69868       -3.10674       -4.10714
H          5.59372       -3.57825       -2.59571
H         -4.06898        0.74259        5.31932
H         -2.37831        0.37531        5.67126
H         -2.88388        2.04499        5.43070
H         -6.08052        3.84110       -4.47198
H         -5.47767        2.75173       -5.71699
H         -6.79298        2.23709       -4.65865
H         -0.33159        2.35802        7.04283
H          1.02245        3.45318        6.75672
H         -0.59999        3.88909        6.21519
H          7.39948        2.31508        0.13015
H          7.60619        0.59133       -0.18862
H          7.10517        1.67906       -1.48519
