171
-217.84253734
P         -1.60789        0.31238       -0.51476
P          1.64398       -0.34132       -0.25266
C         -0.84052        1.28204       -1.81127
C          1.08387       -1.34170       -1.63232
C          0.05538        0.68553       -2.69083
C          0.70148        1.49412       -3.64537
C          0.39071        2.84224       -3.71456
C         -0.52990        3.40505       -2.85630
C         -1.13703        2.62022       -1.89588
C          1.37831       -2.68380       -1.62349
C          0.89671       -3.50837       -2.62047
C          0.10097       -2.97997       -3.61420
C         -0.20732       -1.62987       -3.64113
C          0.31448       -0.78139       -2.64563
Cl         1.35219        0.35024        2.90834
Cl        -1.80467       -0.48333        2.67738
C         -1.07960       -1.10556       -4.72656
C          1.69059        0.91898       -4.59698
H         -0.77118        4.45287       -2.93050
H         -1.84988        3.05207       -1.21200
H          1.98920       -3.09075       -0.83428
H          1.13377       -4.55978       -2.61461
H          0.87774        3.45312       -4.45586
H         -0.29272       -3.62045       -4.38543
C         -3.79682       -3.30626       -2.11047
C         -2.78871       -3.49092       -1.17203
C         -2.12845       -2.36502       -0.69617
C         -2.46079       -1.11887       -1.16440
C         -3.45159       -0.95261       -2.10073
C         -4.15095       -2.04975       -2.58873
H         -4.32483       -4.17107       -2.46537
H         -1.35045       -2.44782        0.04305
H         -3.68794        0.04207       -2.44097
C         -4.36361        2.73209        2.16197
C         -3.02527        3.09361        2.07050
C         -2.21773        2.37275        1.20126
C         -2.72767        1.32444        0.47451
C         -4.05114        0.97526        0.58552
C         -4.90062        1.68142        1.42861
H         -5.00660        3.26418        2.83742
H         -1.16930        2.60618        1.12066
H         -4.40915        0.12701        0.03014
C          4.18404       -2.69448        2.68726
C          2.87223       -3.09427        2.46048
C          2.12914       -2.38591        1.52594
C          2.67370       -1.31413        0.86292
C          3.96774       -0.92750        1.10749
C          4.75065       -1.60852        2.02994
H          4.77568       -3.23660        3.39920
H          1.10648       -2.65961        1.32762
H          4.36663       -0.07674        0.58390
C          3.94465        3.40945       -1.29743
C          2.82866        3.51110       -0.47496
C          2.11209        2.35203       -0.20740
C          2.50988        1.14933       -0.73553
C          3.61650        1.06414       -1.54445
C          4.36594        2.19800       -1.83455
H          4.50693        4.29636       -1.51621
H          1.24269        2.38162        0.42681
H          3.90801        0.10201       -1.93206
Pd        -0.12155       -0.04543        1.25832
C         -1.25595       -4.89195        0.29299
C         -2.45990       -4.90259       -0.66792
C         -2.11718       -5.80995       -1.86426
C         -3.68005       -5.46740        0.08094
H         -1.01453       -5.90240        0.62246
H         -0.37349       -4.48141       -0.19638
H         -1.46762       -4.29789        1.18166
H         -2.96176       -5.90809       -2.54497
H         -1.27913       -5.40241       -2.42827
H         -1.84335       -6.81012       -1.52888
H         -3.94381       -4.82763        0.92295
H         -4.54858       -5.53366       -0.57346
H         -3.47392       -6.46580        0.46630
C         -5.95721       -3.17195       -3.99249
C         -5.30416       -1.83776       -3.58235
C         -4.77897       -1.14519       -4.85276
C         -6.37796       -0.95318       -2.92370
H         -5.23409       -3.83147       -4.47208
H         -6.37608       -3.68639       -3.12780
H         -6.76913       -3.00322       -4.69985
H         -4.05300       -1.77613       -5.36342
H         -5.59228       -0.94416       -5.54991
H         -4.29913       -0.19566       -4.61874
H         -6.74929       -1.41715       -2.01024
H         -5.97719        0.02681       -2.66749
H         -7.22457       -0.80186       -3.59315
C         -1.31159        3.56943        3.83018
C         -2.40026        4.19556        2.93722
C         -3.44553        4.87450        3.84261
C         -1.77425        5.26682        2.02751
H         -0.52730        3.10509        3.23406
H         -0.84659        4.32164        4.46690
H         -1.73768        2.79817        4.47133
H         -4.23683        5.33470        3.25112
H         -3.89691        4.15684        4.52740
H         -2.98474        5.65796        4.44417
H         -0.99271        4.84013        1.40273
H         -2.52638        5.70386        1.37101
H         -1.32963        6.06934        2.61582
C         -7.26768        2.51922        1.33934
C         -6.37458        1.29542        1.61712
C         -6.58548        0.81309        3.06354
C         -6.79210        0.16527        0.65716
H         -8.32226        2.26170        1.43636
H         -7.05986        3.33092        2.03525
H         -7.10351        2.89342        0.32897
H         -7.62004        0.51284        3.22873
H         -5.94568       -0.04234        3.27966
H         -6.34601        1.59803        3.78003
H         -6.21469       -0.74107        0.83860
H         -7.84506       -0.08462        0.78657
H         -6.64850        0.46766       -0.37924
C          0.88636       -3.81875        3.81631
C          2.22368       -4.27403        3.19796
C          3.12285       -4.80276        4.33208
C          1.97322       -5.41260        2.19447
H          0.17495       -3.50984        3.05209
H          0.42628       -4.62441        4.38795
H          1.04137       -2.97367        4.48666
H          2.62924       -5.61114        4.87140
H          4.06104       -5.19596        3.94129
H          3.34935       -4.01472        5.05010
H          1.48822       -6.26103        2.67686
H          1.33570       -5.07940        1.37739
H          2.91188       -5.75893        1.76236
C          6.21230        0.36246        2.57515
C          6.19504       -1.15043        2.27848
C          7.03369       -1.44183        1.02242
C          6.82787       -1.88315        3.47739
H          7.22152        0.70262        2.80648
H          5.85724        0.94226        1.72425
H          5.57396        0.59372        3.42760
H          8.06481       -1.11459        1.15466
H          7.04193       -2.50939        0.80330
H          6.62571       -0.92755        0.15389
H          6.24144       -1.72870        4.38299
H          6.90247       -2.95422        3.29101
H          7.83567       -1.51412        3.66764
C          1.06087        5.27485       -0.54793
C          2.36936        4.84408        0.13325
C          3.41868        5.95517       -0.06521
C          2.13691        4.66914        1.64722
H          0.29394        4.51072       -0.43208
H          0.68294        6.20437       -0.12259
H          1.21751        5.42996       -1.61511
H          3.56757        6.17388       -1.12232
H          3.09856        6.87892        0.41671
H          4.37700        5.66918        0.36811
H          1.84068        5.61130        2.10805
H          1.35249        3.94250        1.85072
H          3.04634        4.32396        2.13846
C          5.27710        1.58514       -4.09420
C          5.64210        2.07115       -2.68134
C          6.59126        1.05650       -2.01693
C          6.38300        3.41692       -2.80484
H          4.76273        0.62544       -4.06080
H          4.62585        2.30393       -4.59017
H          6.17000        1.46395       -4.70733
H          7.52542        0.97362       -2.57214
H          6.82991        1.36309       -0.99866
H          6.14207        0.06518       -1.97531
H          6.66964        3.79795       -1.82477
H          7.29317        3.30405       -3.39383
H          5.76247        4.16354       -3.30006
H         -0.51073       -0.94247       -5.64264
H          2.46450        1.64726       -4.83977
H         -1.54604       -0.16134       -4.44209
H         -1.87669       -1.81421       -4.95232
H          1.20963        0.62410       -5.53019
H          2.18097        0.04040       -4.17530
