105
-153.06596454
Cl        -0.55339        1.88813       -3.00395
Pd         0.21589        1.31516       -0.96419
P          1.33146        0.52289        0.95564
N          1.18177       -1.04530        1.74439
C          0.20899       -2.02970        1.56421
C         -0.17539       -2.48725        0.27824
C         -1.15817       -3.49294        0.16994
C         -1.53751       -4.00029       -1.20109
C         -2.34265       -5.30894       -1.19876
C         -3.43318       -5.27775       -0.12434
C         -2.81374       -5.09046        1.26842
C         -1.74183       -4.03060        1.32074
C         -1.31385       -3.59665        2.56907
C         -0.35393       -2.62696        2.69128
H         -0.04177       -2.29316        3.66544
H         -1.75598       -4.02884        3.45085
H         -3.59288       -4.84129        2.00029
H         -4.12280       -4.44964       -0.33110
H         -2.77764       -5.50263       -2.18945
H         -2.11528       -3.21930       -1.70834
C          0.59432       -2.08191       -0.92245
C         -0.07525       -1.49453       -2.03024
C          0.64138       -1.29703       -3.21410
C          1.96482       -1.64031       -3.30503
C          2.63909       -2.20804       -2.23114
C          4.08408       -2.59954       -2.42966
C          4.81774       -2.99071       -1.13697
C          3.92464       -3.86003       -0.24837
C          2.64064       -3.10697        0.12866
C          1.95375       -2.43417       -1.03534
H          1.93335       -3.79081        0.61433
H          4.46667       -4.18659        0.65046
H          5.10059       -2.08485       -0.58674
H          4.60777       -1.77513       -2.92954
H          2.49948       -1.47310       -4.22478
H          0.14319       -0.83999       -4.05105
N         -1.40528       -1.05401       -1.95794
P         -1.80053        0.14126       -0.72339
C         -2.50044       -0.44168        0.80885
C         -3.54625       -1.33211        0.80145
C         -4.12342       -1.71485        1.99908
C         -3.65680       -1.20370        3.20346
C         -2.61998       -0.28002        3.18233
C         -2.04498        0.10157        1.98419
H         -1.23617        0.81184        1.95693
H         -2.26249        0.13521        4.10887
C         -4.27966       -1.61365        4.49189
H         -4.93979       -2.41659        2.00495
H         -3.90478       -1.72075       -0.13851
C         -2.90370        1.41717       -1.33813
C         -2.85098        2.67349       -0.78184
C         -3.69748        3.66444       -1.24490
C         -4.60932        3.39842       -2.25749
C         -4.64802        2.12213       -2.80306
C         -3.80000        1.13227       -2.33999
H         -3.83862        0.13769       -2.75383
H         -5.34488        1.90882       -3.59553
C         -5.49917        4.47358       -2.77684
H         -3.65160        4.65401       -0.82332
H         -2.14516        2.87620        0.00878
H         -1.74797       -0.63123       -2.81092
H          1.64095       -0.97702        2.64391
C          0.98255        1.81270        2.16301
C          0.59290        1.46626        3.43617
C          0.30043        2.44949        4.36345
C          0.40723        3.79160        4.02623
C          0.80021        4.12440        2.73748
C          1.08901        3.13766        1.81473
H          1.39897        3.39489        0.81642
H          0.87615        5.16199        2.46031
C          0.06493        4.85243        5.01364
H         -0.01796        2.17904        5.35578
H          0.49606        0.42643        3.69896
C          3.07464        0.65084        0.54319
C          3.52224        0.45145       -0.73973
C          4.87119        0.55480       -1.02362
C          5.78434        0.84186       -0.01894
C          5.31641        1.01773        1.27611
C          3.96403        0.92742        1.55425
H          3.59664        1.07223        2.55820
H          6.01724        1.22861        2.06568
C          7.24092        0.91544       -0.31864
H          5.22352        0.41484       -2.03108
H          2.81084        0.22865       -1.51843
Cl         1.91901        2.77722       -1.19927
H         -2.38265       -6.03867        1.61121
H         -1.66690       -6.15133       -1.00462
H         -4.04627       -6.18933       -0.16273
H         -0.62408       -4.12349       -1.79654
H          3.66222       -4.77997       -0.78571
H          2.87545       -2.34283        0.87821
H          4.11949       -3.43626       -3.13762
H          5.76297       -3.50447       -1.36231
H         -4.65963       -2.63486        4.43737
H         -3.55695       -1.57355        5.30815
H         -5.11259       -0.95682        4.74621
H         -6.42837        4.06020       -3.17148
H         -5.76051        5.18245       -1.98990
H         -5.00919        5.02673       -3.57922
H          0.27311        4.52384        6.03285
H          0.64411        5.75925        4.83391
H         -0.99307        5.11106        4.95272
H          7.70401       -0.06858       -0.23299
H          7.41578        1.28294       -1.33078
H          7.75148        1.58951        0.37052
