58
-89.86828712
P          1.55138        0.13049        0.76332
C          1.53769        1.92455        0.63637
C          1.46512        2.48814       -0.61682
C          1.44458        3.86287       -0.75797
C          1.50568        4.66701        0.36251
C          1.59471        4.09944        1.61835
C          1.61405        2.72308        1.75514
H          1.69003        2.27234        2.73096
H          1.43510        1.84222       -1.47955
C          3.15361       -0.51888        0.27277
C          4.24569        0.31877        0.28270
C          5.48682       -0.16319       -0.09281
C          5.62421       -1.48269       -0.47592
C          4.52573       -2.31949       -0.48439
C          3.28616       -1.83483       -0.10747
H          2.41981       -2.47623       -0.12184
H          4.12103        1.34792        0.57951
C          1.20405       -0.44805        2.47712
C          0.50238       -1.79780        2.47667
C         -1.00572       -1.70557        2.30942
P         -1.56145       -0.80339        0.79741
C         -1.73900        0.97419        1.03665
C         -1.66155        1.56295        2.27778
C         -1.77322        2.93616        2.39455
C         -1.96569        3.71208        1.26884
C         -2.05318        3.11789        0.02620
C         -1.94099        1.74444       -0.08644
H         -2.00147        1.26165       -1.04959
H         -1.52661        0.95442        3.15573
C         -3.12207       -1.51825        0.26604
C         -3.16264       -2.84229       -0.10620
C         -4.35736       -3.40328       -0.52147
C         -5.50292       -2.63302       -0.55938
C         -5.45732       -1.30471       -0.18454
C         -4.26127       -0.74676        0.22912
H         -4.21033        0.28938        0.52150
H         -2.25698       -3.42791       -0.08366
Pd         0.08182       -0.65946       -0.85456
Cl         1.58604       -0.24650       -2.46611
Cl        -1.55154       -1.25059       -2.27759
H         -1.45133       -2.70213        2.25883
H         -1.46480       -1.21108        3.16668
H          0.92481       -2.41897        1.67498
H          0.72954       -2.33845        3.40892
H          2.17303       -0.49214        2.98114
H          0.60832        0.30022        2.99968
H          1.38160        4.30337       -1.73935
H          1.64613        4.72779        2.49232
H          6.34300        0.49118       -0.08881
H          4.63194       -3.34789       -0.78835
H         -1.70694        3.40079        3.36465
H         -2.20087        3.72115       -0.85432
H         -4.39142       -4.43831       -0.81946
H         -6.35044       -0.70256       -0.21658
H          1.48701        5.73944        0.25670
H          6.58982       -1.85940       -0.77159
H         -2.04571        4.78301        1.36013
H         -6.43351       -3.06854       -0.88505
