111
-148.55460897
P         -1.67142       -2.73625        0.02114
P         -0.46239        0.13594       -0.55725
C         -1.67361       -2.07544       -1.67028
C         -1.20683       -0.79951       -1.90788
C         -0.54947       -4.19856        0.16059
C          0.64168       -3.87689        1.03783
C         -2.11582       -2.85185       -2.72210
H         -2.44503       -3.86112       -2.53611
C         -2.11254       -2.33753       -4.00727
H         -2.46177       -2.94207       -4.82836
C         -1.65734       -1.05368       -4.23978
H         -1.65047       -0.65548       -5.24105
C         -1.19333       -0.28519       -3.18719
H         -0.80519        0.70736       -3.35437
Pd        -1.27451       -0.89003        1.34548
Cl        -1.72856       -2.20049        3.10781
Cl        -0.80749        1.01197        2.44899
C         -1.46989       -5.30087        0.72223
C         -3.27773       -3.50453        0.52758
H          1.22629       -3.05048        0.62885
H          0.31572       -3.58079        2.03685
H          1.30354       -4.73940        1.14577
H         -1.31510       -5.36742        1.80788
H         -1.17760       -6.28396        0.32328
H         -3.42527       -3.21595        1.57686
C         -2.97130       -5.01022        0.43575
C         -4.44316       -3.03268       -0.31587
H         -0.23355       -4.43931       -0.86299
H         -3.23075       -5.36523       -0.57110
H         -3.61945       -5.57479        1.12345
H         -5.38323       -3.47528        0.02124
H         -4.54635       -1.94588       -0.27502
H         -4.30960       -3.30898       -1.36211
C         -0.94351        4.65861       -0.74501
C          0.35367        4.09349       -0.65084
C          0.46431        2.71448       -0.59852
C         -0.63990        1.90955       -0.70082
C         -1.88531        2.44740       -0.89329
C         -2.06651        3.81961       -0.96353
O         -1.12191        6.05810       -0.58115
C          1.62778        4.94712       -0.55445
H          1.42283        2.24767       -0.45664
H         -2.72206        1.77467       -0.97477
C         -3.47340        4.37446       -1.23653
C          3.76514       -1.40756        0.13382
C          3.20595       -0.45667        1.02545
C          1.91964       -0.00918        0.78102
C          1.23520       -0.39631       -0.34003
C          1.80741       -1.23857       -1.25657
C          3.08587       -1.73603       -1.06761
O          4.98056       -2.06390        0.46463
C          3.93985        0.05368        2.27444
H          1.40662        0.61342        1.49344
H          1.22684       -1.52712       -2.11493
C          3.68974       -2.66335       -2.13335
C          1.47581        6.26415       -1.33685
C          1.93020        5.23895        0.92332
C          2.83451        4.19830       -1.16535
C         -3.40684        5.71138       -1.99723
C         -4.28237        3.39658       -2.11898
C         -4.21379        4.55939        0.09674
C         -1.34967        6.45781        0.76461
H          0.69306        6.88914       -0.91455
H          2.40128        6.83922       -1.31963
H          1.21922        6.06507       -2.37679
H          1.11932        5.79304        1.38977
H          2.05903        4.31130        1.48033
H          2.84263        5.82552        1.02729
H          3.11566        3.33055       -0.57070
H          2.61024        3.86278       -2.17753
H          3.70817        4.84788       -1.21413
H         -4.40497        6.07017       -2.24724
H         -2.92009        6.48194       -1.40480
H         -2.84504        5.59797       -2.92377
H         -5.23003        3.84186       -2.42113
H         -3.72911        3.14190       -3.02261
H         -4.51756        2.47475       -1.58924
H         -3.69180        5.26003        0.74388
H         -5.22244        4.93839       -0.06571
H         -4.29032        3.61173        0.62930
H         -1.34380        5.58950        1.42482
H         -0.57305        7.15639        1.07544
H         -2.31172        6.96458        0.83818
C          4.80979       -3.24928        1.23242
C          3.58884       -0.84611        3.46923
C          5.46307        0.08198        2.05501
C          3.50793        1.50163        2.60258
C          5.21958       -2.50697       -2.20218
C          3.31858       -4.11858       -1.80898
C          3.13770       -2.31718       -3.53510
H          3.89330       -1.87481        3.29159
H          4.08256       -0.50042        4.37697
H          2.51377       -0.84565        3.64829
H          5.71357        0.68749        1.18459
H          5.97567        0.50253        2.91980
H          5.86036       -0.91625        1.89102
H          2.46834        1.55183        2.92242
H          4.11123        1.91123        3.41233
H          3.63125        2.14769        1.73406
H          5.64039       -3.11700       -3.00111
H          5.49095       -1.46854       -2.38921
H          5.69216       -2.81256       -1.27211
H          3.69607       -4.41437       -0.83321
H          2.23651       -4.24666       -1.79836
H          3.73142       -4.80155       -2.55093
H          2.07909       -2.55754       -3.62274
H          3.65843       -2.88415       -4.30647
H          3.26895       -1.25753       -3.75258
H          3.75130       -3.43466        1.41743
H          5.23880       -4.09632        0.69737
H          5.33171       -3.14881        2.18388
