75
-122.81219972
P          1.82833       -0.60454       -0.08948
C          1.78161       -1.53777       -1.63297
C          1.42097       -0.92767       -2.81243
C          1.47949       -1.62992       -4.00148
C          1.89349       -2.94689       -4.00151
C          2.24534       -3.56120       -2.81613
C          2.19145       -2.85206       -1.62970
H          2.48019       -3.31496       -0.69964
H          2.56560       -4.59008       -2.81456
H          1.93517       -3.49804       -4.92676
H          1.19368       -1.15195       -4.92399
H          1.07661        0.09220       -2.79466
C          3.14343       -1.34457        0.89555
C          4.43513       -1.29765        0.42218
C          5.45566       -1.88779        1.14555
C          5.17284       -2.53148        2.33366
C          3.87299       -2.59332        2.79475
C          2.85494       -2.00294        2.06876
H          1.83545       -2.05146        2.41581
H          3.65076       -3.09996        3.71953
H          5.96708       -2.99032        2.89965
H          6.46840       -1.84822        0.77940
H          4.63741       -0.81707       -0.52214
C          2.17587        1.12348       -0.47727
C          3.34186        1.77782       -0.15544
C          3.48941        3.13159       -0.42217
C          2.43516        3.81435       -1.02748
C          1.25595        3.17562       -1.34038
C          1.11860        1.80695       -1.06012
O         -0.07906        1.12354       -1.32589
C         -1.26457        1.80626       -1.00950
C         -1.42854        3.16690       -1.31364
C         -2.61125        3.79543       -0.99135
C         -3.64107        3.11536       -0.34293
C         -3.45621        1.77721       -0.02183
C         -2.28498        1.13668       -0.35135
P         -1.91726       -0.54204        0.17142
C         -3.36449       -1.23709        1.00041
C         -3.55734       -1.12788        2.35765
C         -4.68159       -1.67338        2.94646
C         -5.61778       -2.32343        2.16800
C         -5.43102       -2.42465        0.80404
C         -4.30185       -1.87816        0.22105
H         -4.14469       -1.95093       -0.84339
H         -6.16227       -2.92875        0.19377
H         -6.49663       -2.74867        2.62465
H         -4.82962       -1.58488        4.01025
H         -2.83775       -0.59278        2.95121
C         -1.60766       -1.60882       -1.23954
C         -1.88764       -1.17468       -2.51491
C         -1.76419       -2.04818       -3.57963
C         -1.36660       -3.35173       -3.35664
C         -1.08809       -3.78266       -2.07458
C         -1.21326       -2.90716       -1.01078
H         -1.02133       -3.23325       -0.00040
H         -0.77496       -4.79908       -1.90160
H         -1.26630       -4.03252       -4.18610
H         -1.97702       -1.71095       -4.58066
H         -2.20541       -0.15644       -2.67023
Pd         0.05413       -0.03534        1.40944
Cl        -1.41219        0.96561        2.79143
Cl         1.79349        0.81861        2.57443
H         -4.22299        1.23851        0.50752
C         -4.91010        3.81452       -0.00690
H         -5.51888        3.96301       -0.89967
H         -4.71135        4.79265        0.43303
H         -5.49969        3.24224        0.71046
H         -2.73399        4.83580       -1.23597
S         -0.09756        4.04190       -2.09260
H          2.53587        4.86245       -1.24766
C          4.75829        3.83182       -0.08810
H          4.13518        1.24347        0.33540
H          5.18709        3.44374        0.83679
H          5.49406        3.70049       -0.88248
H          4.59480        4.90175        0.04677
