115
-277.94706496
P         -1.96798       -0.57319       -0.06787
P          1.78149        0.41819       -0.17213
C         -2.10538       -2.35422        0.15569
C         -0.99499       -3.11873        0.44232
H         -0.07068       -2.65018        0.73565
C         -1.05515       -4.48840        0.29035
H         -0.17276       -5.09894        0.40337
C         -2.22141       -5.09033       -0.15158
C         -3.36457       -4.32298       -0.31138
H         -4.26332       -4.79348       -0.67607
C         -3.30899       -2.95359       -0.14871
H         -4.17310       -2.34425       -0.36432
C         -3.45739        0.19587        0.60379
C         -4.15680       -0.38823        1.63506
H         -3.80600       -1.31442        2.06175
C         -5.28389        0.22823        2.14045
H         -5.83568       -0.20343        2.96060
C         -5.72018        1.42533        1.60827
C         -5.01174        2.00461        0.57320
H         -5.35675        2.94416        0.17080
C         -3.88270        1.39161        0.07289
H         -3.33662        1.84313       -0.73846
C         -1.74835       -0.06932       -1.80728
C         -1.20151        1.19805       -1.89478
H         -0.89645        1.70057       -0.99203
C         -0.89227        1.77201       -3.12694
C         -1.34602        1.12783       -4.27132
H         -1.15479        1.56898       -5.23521
C         -1.88409       -0.14095       -4.19305
H         -2.10635       -0.67575       -5.10095
C         -1.98366       -0.81153       -2.97366
C          1.46567       -0.07741       -1.89989
C          0.90813       -1.34100       -1.95709
H          0.64275       -1.83714       -1.03909
C          0.53337       -1.91710       -3.16927
C          0.92522       -1.27544       -4.33755
H          0.68196       -1.71792       -5.28898
C          1.46789       -0.00691       -4.28997
H          1.64047        0.52697       -5.20919
C          1.63574        0.66459       -3.07840
C         -1.98638       -2.32501       -3.02021
H         -2.64754       -2.65623       -3.82899
H         -2.45544       -2.71426       -2.12052
C         -0.55531       -2.95480       -3.20137
H         -0.35483       -3.70833       -2.43215
H         -0.49668       -3.50918       -4.14482
C          0.19433        2.80807       -3.22450
H          0.04147        3.56450       -2.44736
H          0.08160        3.36045       -4.16427
C          1.63325        2.17830       -3.12696
H          2.24681        2.51183       -3.97169
H          2.15342        2.57164       -2.25774
C          2.08291        2.18651       -0.01318
C          1.05488        3.05106        0.29589
C          3.31150        2.67166       -0.40975
C          1.21647        4.40418        0.08116
C          3.46753        4.02470       -0.63569
C          2.39940        4.88954       -0.45157
C          3.24656       -0.43935        0.45071
C          3.59393       -1.66037       -0.08097
C          4.02181        0.12628        1.43668
C          4.71880       -2.31758        0.37386
H          2.99785       -2.09281       -0.86647
C          5.14381       -0.53205        1.89492
H          3.74162        1.07902        1.85770
C          5.49743       -1.75968        1.36794
H          5.01833       -3.26607       -0.04331
H          5.76289       -0.09794        2.66395
Pd        -0.08449        0.02579        1.21139
Cl        -1.62787        0.02472        2.85249
Cl         1.53298        0.12863        2.77775
H          4.37860        4.40362       -1.07015
H          4.10895        1.98488       -0.64830
H          0.39210        5.08856        0.21007
H          0.10947        2.67214        0.64580
C         -3.47665       -7.21416       -0.73589
C         -2.11769       -6.45707       -0.77957
C         -1.60652       -6.21516       -2.23522
F         -4.35961       -6.60169       -1.53668
F         -3.28569       -8.48257       -1.13070
F         -3.91808       -7.18527        0.53026
F         -1.21014       -7.19498       -0.13565
F         -2.38871       -5.30143       -2.82707
F         -0.36377       -5.72442       -2.14453
F         -1.60979       -7.36710       -2.91925
C         -6.46801        3.34684        3.00745
C         -6.93251        2.10924        2.18725
C         -7.92285        2.49038        1.04746
F         -5.68617        2.89966        4.00188
F         -5.76432        4.16565        2.21199
F         -7.53987        3.97898        3.50880
F         -7.57221        1.28390        3.02038
F         -7.36779        3.42721        0.26602
F         -8.15816        1.38188        0.32950
F         -9.06500        2.94316        1.58696
C          7.96686       -1.78548        1.08345
C          6.76167       -2.45816        1.80066
C          6.89945       -2.42564        3.35142
F          9.10731       -2.37149        1.47783
F          7.79115       -1.95194       -0.23614
F          7.97952       -0.47668        1.37634
F          6.72765       -3.73972        1.42499
F          7.92743       -3.20604        3.71930
F          7.09809       -1.16421        3.75876
F          5.75454       -2.89550        3.86921
C          3.77240        6.87412       -1.23303
C          2.36021        6.22627       -1.14887
C          1.73677        5.95052       -2.55423
F          4.29108        6.88209        0.00385
F          4.55301        6.14935       -2.04630
F          3.65290        8.12941       -1.69282
F          1.55605        7.06708       -0.49381
F          0.47237        5.55445       -2.35854
F          1.77175        7.06491       -3.29701
F          2.41412        4.95654       -3.14596
