171
-217.84349505
P         -1.61999        0.35075       -0.43820
P          1.62053       -0.28380       -0.19841
C         -0.83309        1.37795       -1.68071
C          1.04794       -1.25640       -1.59181
C          0.06135        0.81866       -2.58694
C          0.73162        1.67087       -3.48596
C          0.45410        3.02765       -3.46878
C         -0.45970        3.55663       -2.58198
C         -1.09638        2.72582       -1.68150
C          1.32457       -2.60133       -1.62111
C          0.85949       -3.38271       -2.65980
C          0.10681       -2.80684       -3.66126
C         -0.18047       -1.45144       -3.65033
C          0.31310       -0.65007       -2.60345
Cl         1.35005        0.40690        2.99071
Cl        -1.81307       -0.41058        2.77252
C         -0.98041       -0.85859       -4.75580
C          1.74831        1.15054       -4.44105
H         -0.67052        4.61357       -2.58455
H         -1.80349        3.13116       -0.97614
H          1.91228       -3.04236       -0.83279
H          1.08371       -4.43657       -2.68556
H          0.96959        3.67328       -4.15978
H         -0.26547       -3.41358       -4.46942
C         -3.69379       -3.28097       -2.15835
C         -2.72242       -3.46141       -1.18150
C         -2.09340       -2.33193       -0.67283
C         -2.41684       -1.08617       -1.14870
C         -3.37174       -0.92445       -2.12300
C         -4.04002       -2.02562       -2.64485
H         -4.20150       -4.14842       -2.53557
H         -1.34974       -2.41158        0.10119
H         -3.60909        0.07020       -2.46249
C         -4.56806        2.56280        2.20981
C         -3.24813        2.99245        2.18008
C         -2.37018        2.33496        1.32671
C         -2.80538        1.29196        0.54490
C         -4.11522        0.88024        0.59170
C         -5.02847        1.51470        1.42458
H         -5.25160        3.03891        2.88844
H         -1.32838        2.60417        1.29680
H         -4.41278        0.03632       -0.00446
C          4.21625       -2.72578        2.61883
C          2.89027       -3.10017        2.43808
C          2.12588       -2.36684        1.54047
C          2.66119       -1.28785        0.88104
C          3.96866       -0.92288        1.08598
C          4.77922       -1.64499        1.95220
H          4.82988       -3.27817        3.30515
H          1.09554       -2.62758        1.36747
H          4.34923       -0.05718        0.57481
C          4.00996        3.33017       -1.48838
C          2.91679        3.52245       -0.65322
C          2.18682        2.40410       -0.26845
C          2.53495        1.16010       -0.73175
C          3.60799        0.98819       -1.57212
C          4.37660        2.07824       -1.96424
H          4.60572        4.18127       -1.76220
H          1.34560        2.48975        0.39744
H          3.84528       -0.00770       -1.90669
Pd        -0.12470       -0.03660        1.34183
C         -2.04531       -5.78686       -1.85165
C         -2.40735       -4.87216       -0.66631
C         -3.64337       -5.42926        0.06173
C         -1.22105       -4.86075        0.31591
H         -1.77297       -6.78373       -1.50538
H         -2.87991       -5.89343       -2.54324
H         -1.20094       -5.38068       -2.40706
H         -3.44923       -6.42780        0.45289
H         -3.91929       -4.78623        0.89734
H         -4.50004       -5.49224       -0.60851
H         -1.45000       -4.26967        1.20223
H         -0.98299       -5.87134        0.64739
H         -0.33167       -4.44627       -0.15731
C         -5.76215       -3.16394       -4.13908
C         -5.15959       -1.82230       -3.67836
C         -4.60529       -1.09278       -4.91479
C         -6.27978       -0.97795       -3.04571
H         -5.00283       -3.79823       -4.59628
H         -6.20726       -3.70284       -3.30289
H         -6.54558       -3.00158       -4.87929
H         -5.39488       -0.90741       -5.64288
H         -4.16825       -0.13165       -4.64720
H         -3.83829       -1.69240       -5.40243
H         -6.67832       -1.47252       -2.16026
H         -5.91215        0.00398       -2.75013
H         -7.10091       -0.82920       -3.74673
C         -2.90690        3.58662        4.58488
C         -2.78719        4.09909        3.13841
C         -3.66821        5.34837        2.95025
C         -1.32297        4.49720        2.87971
H         -3.93773        3.33211        4.82874
H         -2.30026        2.69203        4.72527
H         -2.56963        4.34016        5.29626
H         -4.71080        5.14135        3.18773
H         -3.33635        6.15972        3.59789
H         -3.62207        5.69937        1.91946
H         -0.65083        3.65591        3.04776
H         -1.19642        4.84800        1.85634
H         -1.01502        5.30171        3.54739
C         -6.81997       -0.05332        0.53044
C         -6.48593        1.04988        1.55192
C         -7.43106        2.24043        1.30271
C         -6.71157        0.49231        2.96869
H         -7.86305       -0.35791        0.61505
H         -6.66033        0.30387       -0.48586
H         -6.20515       -0.93909        0.68911
H         -8.47373        1.92750        1.35550
H         -7.28424        3.02777        2.04085
H         -7.25721        2.66918        0.31591
H         -6.52967        1.25433        3.72574
H         -7.73427        0.13594        3.09051
H         -6.03667       -0.34063        3.16504
C          0.91847       -3.84616        3.80698
C          2.25676       -4.28581        3.17911
C          3.16832       -4.80438        4.30829
C          2.01289       -5.42608        2.17642
H          1.06731       -2.99564        4.47186
H          0.19530       -3.55227        3.04802
H          0.47519       -4.65536        4.38687
H          3.39982       -4.01029        5.01802
H          2.68221       -5.61029        4.85801
H          4.10376       -5.19831        3.91180
H          1.37181       -5.09669        1.36065
H          2.95322       -5.76532        1.74228
H          1.53506       -6.27813        2.65960
C          6.69233       -0.10166        1.29746
C          6.24221       -1.25858        2.21127
C          7.15159       -2.47113        1.93683
C          6.39262       -0.81516        3.67724
H          7.74001        0.14400        1.47049
H          6.58438       -0.37233        0.24735
H          6.10883        0.79947        1.48528
H          6.92075       -3.30162        2.60267
H          7.02890       -2.81922        0.91135
H          8.20029       -2.21215        2.08185
H          5.74245        0.03320        3.89020
H          6.12602       -1.61985        4.36158
H          7.41882       -0.51800        3.89255
C          2.40728        5.87706       -1.36540
C          2.57638        4.93428       -0.15893
C          3.71667        5.44133        0.74171
C          1.26747        4.94510        0.65069
H          1.63192        5.50845       -2.03585
H          2.12429        6.87823       -1.04079
H          3.33024        5.96290       -1.93725
H          3.85735        4.77692        1.59413
H          4.65848        5.48872        0.19602
H          3.49927        6.43904        1.12264
H          1.01699        5.95699        0.96897
H          0.43794        4.56875        0.05272
H          1.35762        4.33061        1.54604
C          5.55052        2.87375       -4.04816
C          5.63338        1.92838       -2.83413
C          5.79367        0.48565       -3.35166
C          6.86947        2.28915       -1.99032
H          5.48708        3.91611       -3.73895
H          6.43225        2.77055       -4.68047
H          4.67586        2.65157       -4.65738
H          6.67208        0.39938       -3.99109
H          5.91823       -0.21653       -2.52758
H          4.92632        0.18096       -3.93697
H          6.94424        1.64061       -1.11842
H          7.78497        2.18045       -2.57155
H          6.81731        3.31829       -1.63638
H         -0.33290       -0.47313       -5.54408
H          2.67576        1.71651       -4.35674
H         -1.60061       -0.03676       -4.39526
H         -1.63847       -1.60386       -5.20304
H          1.39728        1.23422       -5.47057
H          1.98563        0.10383       -4.24714
