105
-153.07157128
Cl        -0.86882        2.14548       -2.84237
Pd         0.07084        1.54203       -0.88626
P          1.36857        0.73353        0.86673
N          0.65436       -0.50253        1.88912
C          0.03344       -1.72382        1.66947
C         -0.12874       -2.31490        0.39175
C         -0.87120       -3.50861        0.27018
C         -1.03165       -4.12574       -1.09857
C         -2.12978       -5.19729       -1.18261
C         -2.04471       -6.16250        0.00323
C         -2.19655       -5.40835        1.33309
C         -1.40347       -4.12714        1.40372
C         -1.19665       -3.55036        2.64950
C         -0.49733       -2.37904        2.78020
H         -0.37188       -1.93342        3.75173
H         -1.61206       -4.02824        3.52061
H         -3.25334       -5.17332        1.50577
H         -2.80004       -6.95623       -0.08549
H         -3.11320       -4.71074       -1.18343
H         -1.23718       -3.32778       -1.82234
C          0.65192       -1.85502       -0.78233
C          0.00875       -1.21091       -1.87337
C          0.74882       -0.97809       -3.03593
C          2.05939       -1.36899       -3.13127
C          2.69247       -2.03682       -2.08992
C          4.10853       -2.51560       -2.31070
C          4.75995       -3.20477       -1.09869
C          3.73956       -4.01968       -0.29925
C          2.59490       -3.12000        0.18722
C          1.98286       -2.29169       -0.91529
H          1.81537       -3.72994        0.66008
H          4.22178       -4.53285        0.54486
H          5.20251       -2.44801       -0.44138
H          4.71835       -1.66233       -2.63305
H          2.61143       -1.17566       -4.03547
H          0.27721       -0.46409       -3.85492
N         -1.32685       -0.79185       -1.82166
P         -1.85266        0.20097       -0.45928
C         -2.81771       -0.75102        0.71126
C         -3.56797       -1.79452        0.22570
C         -4.37364       -2.51974        1.08497
C         -4.42885       -2.19993        2.43488
C         -3.68671       -1.12130        2.89830
C         -2.88549       -0.39433        2.03667
H         -2.31015        0.44364        2.39341
H         -3.73823       -0.85600        3.94043
C         -5.29475       -2.97665        3.36408
H         -4.96158       -3.34041        0.71117
H         -3.51348       -2.03807       -0.82365
C         -2.97485        1.49771       -0.99619
C         -2.95560        2.71634       -0.35947
C         -3.82260        3.71462       -0.76455
C         -4.72208        3.49267       -1.79867
C         -4.72778        2.25322       -2.42457
C         -3.85912        1.25588       -2.01940
H         -3.86894        0.28950       -2.49731
H         -5.41436        2.07501       -3.23446
C         -5.63314        4.57782       -2.25666
H         -3.80202        4.67627       -0.28092
H         -2.25872        2.88544        0.44634
H         -1.64997       -0.29632       -2.64268
H          0.86754       -0.25325        2.84738
C          1.33183        2.23779        1.84830
C          2.45047        3.02046        2.00656
C          2.37152        4.18964        2.74036
C          1.17256        4.58019        3.32206
C          0.05085        3.78238        3.13995
C          0.13284        2.61281        2.40606
H         -0.73494        1.99095        2.25778
H         -0.88784        4.08449        3.57207
C          1.08058        5.85509        4.08600
H          3.24215        4.81163        2.85970
H          3.37729        2.72208        1.54460
C          3.09723        0.36000        0.57095
C          3.82306       -0.19648        1.59756
C          5.17676       -0.43334        1.43552
C          5.81208       -0.10975        0.24411
C          5.06622        0.46880       -0.77334
C          3.71444        0.70414       -0.60784
H          3.14301        1.18322       -1.38467
H          5.55345        0.74368       -1.69321
C          7.27217       -0.34463        0.07060
H          5.74850       -0.86888        2.23702
H          3.32805       -0.43644        2.52534
Cl         1.75107        2.99998       -1.22335
H         -1.90093       -6.05358        2.17031
H         -2.07110       -5.74352       -2.13465
H         -1.07482       -6.67545       -0.01611
H         -0.06964       -4.55579       -1.40149
H          3.33085       -4.81505       -0.93512
H          2.95551       -2.44985        0.97417
H          4.10486       -3.20613       -3.16269
H          5.59947       -3.83909       -1.41637
H         -5.44740       -3.99467        3.00287
H         -4.84547       -3.04240        4.35606
H         -6.27316       -2.50554        3.46725
H         -5.89789        5.24334       -1.43383
H         -5.15929        5.17705       -3.03528
H         -6.55953        4.16939       -2.66291
H          0.83129        6.68544        3.42399
H          0.31188        5.79735        4.85791
H          2.02601        6.08857        4.57765
H          7.50526       -0.62189       -0.95854
H          7.84047        0.55400        0.31434
H          7.62231       -1.15036        0.71742
