72
-108.40221671
Cl         1.72372       -0.87664        2.66058
Cl        -1.02228        0.65718        2.78065
P         -1.11826        1.14584       -0.29502
P          2.27478       -0.11442       -0.33819
C          3.27525        1.46796       -0.02394
C          3.60471        1.55878        1.46710
C          4.55421        1.44267       -0.85302
C          3.33851       -1.68212       -0.14846
C          4.16499       -1.92253       -1.41800
C          1.46952       -0.32920       -2.03292
C          1.51385        0.90442       -2.90905
C         -1.12083       -0.19481       -1.51918
C          0.06244       -0.90787       -1.99746
C         -0.40623       -1.97371       -2.88399
C         -1.85513       -1.92321       -2.91836
C         -2.29704       -0.79812       -2.11551
C          2.44182        2.68889       -0.39318
H          4.24818        0.74847        1.79870
H          4.12587        2.49161        1.68843
H          5.09416        2.38577       -0.75371
H          4.34010        1.29451       -1.91089
C          4.27988       -1.60788        1.04990
H          4.67729       -1.01998       -1.74592
H          3.55281       -2.28444       -2.24323
H          2.09510       -1.09009       -2.50873
H          1.11951        0.69125       -3.90491
H          2.52721        1.28587       -3.03415
H          0.89348        1.69359       -2.48958
H          0.22934       -2.64311       -3.46596
H         -2.50196       -2.57665       -3.50792
Pd         0.48459        0.23626        1.15605
H         -3.32724       -0.49085       -1.92363
C          2.35813       -2.82884        0.04484
H          4.92400       -2.68602       -1.23947
H          3.74480       -1.35707        1.96346
H          4.76322       -2.57204        1.21414
H          5.07338       -0.87960        0.89348
H          1.84339       -2.73388        0.99967
H          1.61426       -2.84613       -0.75292
H          2.87571       -3.79022        0.04409
H          2.69972        1.53779        2.07448
H          5.22744        0.65139       -0.52792
H          2.27433        2.76450       -1.46449
H          1.47664        2.66778        0.11049
H          2.94680        3.60712       -0.08904
C         -2.76860        1.25205        0.42392
C         -3.17605        2.31693        1.18673
C         -4.49135        2.05869        1.57562
C         -4.83089        0.84529        1.02809
O         -3.78190        0.33980        0.31494
H         -2.57699        3.17898        1.43536
H         -5.11625        2.68710        2.18896
H         -5.78635        0.34716        1.13731
C         -0.80187        2.75980       -1.02506
C         -1.20133        3.08894       -2.29629
C         -0.81021        4.41081       -2.51591
C         -0.19332        4.83370       -1.36362
O         -0.18222        3.82875       -0.43840
H         -1.72277        2.44040       -2.98267
H         -0.96711        4.98825       -3.41230
H          0.22791        5.81727       -1.19631
Fe        -1.23596       -2.11530       -0.96506
C         -0.85290       -2.65016        0.99675
C         -0.83401       -3.80779        0.12197
C         -2.13691       -3.91504       -0.50812
C         -2.94238       -2.80073       -0.04155
C         -2.15534       -2.02975        0.89994
H         -0.05463       -2.31878        1.66289
H         -0.01118       -4.51750        0.01040
H         -2.45458       -4.69347       -1.20539
H         -3.97912       -2.59640       -0.31847
H         -2.47498       -1.12964        1.42747
