171
-217.84408960
P         -1.58134        0.31711       -0.45274
P          1.70042       -0.38233       -0.25928
C         -0.80778        1.28231       -1.74852
C          1.06441       -1.37071       -1.61898
C          0.04377        0.66802       -2.65855
C          0.67176        1.46092       -3.63709
C          0.40537        2.81986       -3.68131
C         -0.45898        3.40503       -2.77996
C         -1.06115        2.63028       -1.80794
C          1.30922       -2.72250       -1.59550
C          0.76549       -3.54574       -2.56159
C         -0.04203       -3.00613       -3.53987
C         -0.30241       -1.64669       -3.58254
C          0.27642       -0.80246       -2.61480
Cl         1.42070        0.30927        2.90760
Cl        -1.71953       -0.62002        2.69261
C         -1.20867       -1.11717       -4.63899
C          1.58208        0.84824       -4.64256
H         -0.66564        4.46136       -2.83447
H         -1.73609        3.07595       -1.09484
H          1.92544       -3.13858       -0.81499
H          0.96209       -4.60527       -2.54228
H          0.88045        3.42164       -4.43757
H         -0.48749       -3.64532       -4.28355
C         -3.85241       -3.25287       -2.03556
C         -2.87293       -3.46180       -1.07268
C         -2.17938       -2.35453       -0.60038
C         -2.44720       -1.10602       -1.10253
C         -3.40177       -0.91790       -2.07158
C         -4.13367       -1.99576       -2.55560
H         -4.42754       -4.09390       -2.37611
H         -1.43133       -2.45266        0.16710
H         -3.57624        0.08055       -2.43582
C         -4.45129        2.77256        2.07246
C         -3.09062        3.04934        2.14741
C         -2.23149        2.31877        1.33704
C         -2.71513        1.33318        0.51242
C         -4.06023        1.06577        0.46201
C         -4.95947        1.78626        1.23510
H         -5.12987        3.33050        2.68830
H         -1.17099        2.50246        1.37033
H         -4.41431        0.27380       -0.17389
C          4.35785       -2.70789        2.58682
C          3.03158       -3.09429        2.44594
C          2.24465       -2.39402        1.54015
C          2.77147       -1.35124        0.81743
C          4.08515       -0.98218        0.97262
C          4.91028       -1.66106        1.86070
H          4.97275       -3.22178        3.30259
H          1.20249       -2.63424        1.41754
H          4.45453       -0.14175        0.41266
C          3.82849        3.47998       -1.27540
C          2.77170        3.50279       -0.37329
C          2.11053        2.30836       -0.12096
C          2.50734        1.14581       -0.73377
C          3.56125        1.13763       -1.61495
C          4.24935        2.31133       -1.90069
H          4.34392        4.39626       -1.48821
H          1.28591        2.27857        0.57015
H          3.85874        0.20594       -2.06638
Pd        -0.06182       -0.07867        1.26534
C         -3.86044       -5.36512        0.21927
C         -2.61349       -4.87632       -0.53848
C         -1.41066       -4.90249        0.42295
C         -2.31292       -5.82434       -1.71473
H         -3.70425       -6.36458        0.62481
H         -4.09302       -4.69633        1.04782
H         -4.73047       -5.40106       -0.43555
H         -1.21317       -5.91704        0.76877
H         -0.51039       -4.53795       -0.07108
H         -1.59819       -4.28594        1.30172
H         -1.45595       -5.46881       -2.28568
H         -2.08678       -6.82886       -1.35754
H         -3.16058       -5.89748       -2.39473
C         -5.11870       -2.82335       -4.72383
C         -5.27585       -1.81828       -3.56615
C         -5.28959       -0.39610       -4.16080
C         -6.61393       -2.06567       -2.84687
H         -4.15980       -2.69370       -5.22398
H         -5.17692       -3.85225       -4.37178
H         -5.90469       -2.68550       -5.46620
H         -4.34092       -0.16487       -4.64469
H         -6.07647       -0.29716       -4.90842
H         -5.47563        0.35219       -3.39094
H         -6.65997       -3.07625       -2.44200
H         -6.74108       -1.36892       -2.01858
H         -7.45439       -1.93772       -3.52878
C         -1.50186        3.38916        4.05400
C         -2.50534        4.08758        3.11537
C         -3.59859        4.74933        3.97579
C         -1.78568        5.18343        2.31082
H         -0.67619        2.94790        3.49737
H         -1.08079        4.09388        4.77063
H         -1.98957        2.58957        4.61100
H         -4.13002        4.00802        4.57228
H         -3.16296        5.47459        4.66298
H         -4.32131        5.27784        3.35443
H         -0.96985        4.76405        1.72602
H         -2.47421        5.67324        1.62253
H         -1.36710        5.94321        2.97062
C         -6.93824        1.67027       -0.29874
C         -6.45499        1.45042        1.14695
C         -7.29629        2.33645        2.08523
C         -6.66676       -0.02288        1.54425
H         -8.00080        1.44732       -0.39379
H         -6.78084        2.70447       -0.60428
H         -6.39987        1.03067       -0.99689
H         -8.35409        2.08506        2.00859
H         -6.99952        2.19907        3.12484
H         -7.18889        3.39062        1.83037
H         -6.30019       -0.20487        2.55424
H         -7.72364       -0.28722        1.51476
H         -6.13688       -0.69587        0.87105
C          2.50692       -3.75615        4.80052
C          2.46313       -4.21194        3.33098
C          3.30408       -5.48976        3.15327
C          1.00349       -4.53777        2.96342
H          2.09262       -4.51910        5.45925
H          3.52856       -3.55509        5.12092
H          1.92886       -2.84196        4.93494
H          3.30910       -5.80439        2.10980
H          4.33706       -5.33325        3.46119
H          2.90059       -6.30754        3.75018
H          0.35719       -3.67296        3.11267
H          0.93004       -4.85343        1.92352
H          0.61794       -5.34674        3.58370
C          6.81189       -0.13646        1.13464
C          6.37098       -1.25373        2.09910
C          7.28810       -2.47152        1.87910
C          6.52002       -0.74293        3.54340
H          7.85612        0.12879        1.29947
H          6.71150       -0.45930        0.09904
H          6.21730        0.76569        1.27748
H          7.06170       -3.27312        2.58091
H          7.16838       -2.86559        0.87005
H          8.33505       -2.19980        2.01305
H          5.86347        0.10915        3.71870
H          6.26088       -1.51754        4.26432
H          7.54415       -0.42827        3.74317
C          3.34970        5.92048        0.17721
C          2.31398        4.78927        0.32950
C          2.11878        4.52017        1.83557
C          0.98578        5.24765       -0.29241
H          3.46158        6.21735       -0.86523
H          3.04103        6.80435        0.73538
H          4.32373        5.61095        0.55587
H          1.33490        3.78650        2.01525
H          3.03858        4.14174        2.28082
H          1.83983        5.43298        2.36163
H          0.61114        6.14618        0.19750
H          1.11470        5.46880       -1.35157
H          0.22849        4.47023       -0.20411
C          5.02128        1.80229       -4.23759
C          5.46316        2.27700       -2.84335
C          6.51632        1.30657       -2.27878
C          6.11475        3.66634       -2.98904
H          4.58012        0.80743       -4.19446
H          4.28453        2.48601       -4.65764
H          5.86846        1.76108       -4.92206
H          7.39812        1.27188       -2.91834
H          6.83355        1.62197       -1.28521
H          6.12088        0.29443       -2.20291
H          6.46312        4.03958       -2.02614
H          6.97620        3.62084       -3.65529
H          5.41315        4.38735       -3.40825
H         -2.14688       -1.67226       -4.65108
H          2.18733        0.05932       -4.19376
H         -0.75409       -1.20831       -5.62649
H         -1.45184       -0.06706       -4.47275
H          2.25805        1.59083       -5.06653
H          1.01640        0.41128       -5.46602
