58
-89.86655367
P          1.58590        0.01300        0.71101
C          2.97370        1.15253        0.73327
C          4.25016        0.65057        0.61690
C          5.33325        1.51100        0.63906
C          5.12874        2.86948        0.77872
C          3.84647        3.36843        0.89601
C          2.76569        2.50536        0.87473
H          1.75945        2.88549        0.94658
H          4.39290       -0.41254        0.50543
C          2.04196       -1.52021       -0.10666
C          2.18941       -1.49472       -1.47459
C          2.52659       -2.65047       -2.15419
C          2.71993       -3.82475       -1.45383
C          2.58284       -3.84352       -0.07954
C          2.24447       -2.68560        0.59714
H          2.13666       -2.68954        1.66931
H          2.03925       -0.56348       -1.99824
C          1.03882       -0.23910        2.45205
C          0.06836        0.85455        2.88528
C         -1.39353        0.54167        2.59850
P         -1.75287        0.03382        0.86185
C         -3.46061        0.43148        0.47639
C         -3.89663        1.73128        0.59330
C         -5.20983        2.04570        0.29144
C         -6.07673        1.05466       -0.12498
C         -5.63443       -0.24825       -0.24209
C         -4.32075       -0.55890        0.05930
H         -3.96075       -1.57079       -0.03146
H         -3.20424        2.49780        0.90402
C         -1.44194       -1.71996        0.56937
C         -1.31974       -2.14174       -0.73559
C         -1.04957       -3.46892       -1.01365
C         -0.91026       -4.37149        0.02078
C         -1.04892       -3.95016        1.32796
C         -1.31950       -2.62201        1.60163
H         -1.44388       -2.29475        2.62012
H         -1.43865       -1.42785       -1.53551
Pd        -0.13742        0.82197       -0.61825
Cl         1.44386        1.82414       -1.86155
Cl        -1.84348        1.71453       -1.77013
H         -1.75326       -0.26197        3.24262
H         -2.02483        1.40735        2.81268
H          0.18812        1.06014        3.96067
H          0.34806        1.79180        2.38496
H          0.58964       -1.22648        2.55443
H          1.95049       -0.23985        3.05507
H          6.33347        1.12118        0.54501
H          3.68628        4.42916        0.99832
H          2.63694       -2.63326       -3.22591
H          2.73507       -4.76037        0.46589
H         -5.55286        3.06374        0.37615
H         -6.30959       -1.02143       -0.57014
H         -0.94291       -3.79494       -2.03517
H         -0.94537       -4.65588        2.13581
H          5.97103        3.54185        0.79284
H          2.98017       -4.72831       -1.98062
H         -7.09926        1.29917       -0.36238
H         -0.69380       -5.40561       -0.19229
