58
-89.86776484
P          1.86441       -0.18137        0.56131
C          1.50367        1.58204        0.63842
C          1.44468        2.27258        1.82703
C          1.12792        3.61854        1.82431
C          0.87620        4.26682        0.63153
C          0.94641        3.57408       -0.56011
C          1.26328        2.22831       -0.55313
H          1.31814        1.66829       -1.47395
H          1.65538        1.76773        2.75456
C          3.45838       -0.46872       -0.21200
C          3.83393       -1.75613       -0.51964
C          5.05730       -1.98928       -1.12263
C          5.89495       -0.93011       -1.41201
C          5.51318        0.36022       -1.10151
C          4.28930        0.59006       -0.49953
H          3.97590        1.59211       -0.25540
H          3.16350       -2.57188       -0.29855
C          1.83450       -1.02250        2.20212
C          0.46437       -1.52900        2.62450
C         -0.61456       -0.45379        2.63837
P         -1.40998       -0.25838        0.98536
C         -1.96732        1.42975        0.70832
C         -2.25601        1.82091       -0.57882
C         -2.67492        3.11316       -0.83317
C         -2.81015        4.00668        0.21047
C         -2.53497        3.60783        1.50367
C         -2.11483        2.31376        1.75341
H         -1.90400        1.99294        2.76032
H         -2.15960        1.10320       -1.37701
C         -2.79003       -1.40515        0.90212
C         -2.56701       -2.74776        0.69949
C         -3.63881       -3.61993        0.63466
C         -4.92632       -3.14062        0.77486
C         -5.14528       -1.79248        0.97842
C         -4.07144       -0.92271        1.04184
H         -4.22591        0.13348        1.19469
H         -1.55850       -3.10835        0.57658
Pd         0.04830       -0.74909       -0.76903
Cl         1.46718       -0.93803       -2.49232
Cl        -1.82953       -1.10197       -1.95623
H         -1.42422       -0.69821        3.33094
H         -0.20404        0.50414        2.95730
H          0.14919       -2.34086        1.95489
H          0.54364       -1.99343        3.61996
H          2.55234       -1.84457        2.14578
H          2.23434       -0.31849        2.93334
H          1.07487        4.16066        2.75418
H          0.74808        4.07680       -1.49231
H          5.35260       -2.99566       -1.37006
H          6.16515        1.18722       -1.33019
H         -2.89484        3.42013       -1.84239
H         -2.64405        4.30479        2.31830
H         -3.46826       -4.67109        0.46959
H         -6.14990       -1.41731        1.08448
H          0.62279        5.31440        0.63092
H          6.84700       -1.11062       -1.88397
H         -3.13373        5.01618        0.01592
H         -5.76184       -3.81944        0.72175
