87
-129.18475131
P         -1.69951       -0.37405       -0.11277
P          1.57132        0.33790       -0.18799
C         -1.44662        0.96395       -1.30480
C          1.31769       -0.65363       -1.66447
C         -0.49670        0.92275       -2.32389
C         -0.29088        2.07466       -3.10775
C         -1.05598        3.20358       -2.87223
C         -2.00170        3.22289       -1.87115
C         -2.18595        2.10239       -1.08550
C          2.11194       -1.75217       -1.88419
C          1.92856       -2.52452       -3.01399
C          0.94490       -2.18763       -3.91985
C          0.13130       -1.08530       -3.71589
C          0.32376       -0.29375       -2.56585
Cl         1.30288        1.21750        2.86719
Cl        -1.39177       -0.72996        3.06974
H         -2.58494        4.11137       -1.69261
H         -2.90997        2.11902       -0.28770
H          2.88217       -2.00413       -1.17449
H          2.54935       -3.38878       -3.18444
H         -0.89559        4.07910       -3.47835
H          0.79518       -2.79010       -4.79970
C         -0.88883       -4.58985       -1.60214
C         -0.35539       -4.17632       -0.38912
C         -0.63783       -2.88985        0.05241
C         -1.41460       -2.04400       -0.70575
C         -1.96286       -2.47099       -1.89190
C         -1.69797       -3.75063       -2.34318
H         -0.66610       -5.57995       -1.96173
C          0.53742       -5.06697        0.40072
H         -0.27043       -2.55849        1.00839
H         -2.57598       -1.79554       -2.46703
H         -2.11113       -4.08698       -3.27993
C         -5.82205       -0.02557        1.78957
C         -5.58464       -0.98526        0.82554
C         -4.33139       -1.09125        0.25206
C         -3.32545       -0.24048        0.64748
C         -3.56095        0.71734        1.60678
C         -4.81608        0.84302        2.18963
H         -6.79459        0.05272        2.24493
H         -6.37371       -1.65405        0.52296
H         -4.13084       -1.83920       -0.49750
H         -2.75838        1.36221        1.92511
C         -5.05306        1.85444        3.25519
C          4.94894       -1.44961        2.29535
C          5.07466       -0.17072        1.78950
C          4.05530        0.37511        1.03251
C          2.92215       -0.36226        0.78251
C          2.79319       -1.63464        1.28990
C          3.80332       -2.19708        2.05959
H          5.74294       -1.87734        2.88344
H          5.96498        0.40342        1.98732
H          4.13522        1.37613        0.64165
H          1.90129       -2.20159        1.08533
C          3.66176       -3.58108        2.58814
C          2.40143        4.65163       -1.33617
C          3.14277        3.63287       -1.90217
C          2.89781        2.32025       -1.54332
C          1.92259        2.04245       -0.61462
C          1.18865        3.05455       -0.04172
C          1.40856        4.37733       -0.40560
H          2.58900        5.67437       -1.61555
H          3.90692        3.85899       -2.62765
H          3.45331        1.50971       -1.98869
H          0.43368        2.81826        0.68902
C          0.61543        5.47217        0.21580
Pd        -0.05485        0.09976        1.47656
C          0.73939        2.11139       -4.18311
C         -0.92766       -0.76531       -4.71288
H          0.27804        2.02379       -5.16745
H          1.29544        3.04956       -4.15559
H          1.46098        1.30112       -4.07420
H         -0.49164       -0.35612       -5.62504
H         -1.49045       -1.66005       -4.98289
H         -1.63797       -0.03595       -4.32196
H          0.45071       -4.86252        1.46885
H          0.28746       -6.11698        0.24273
H          1.57985       -4.92120        0.11365
H         -4.48979        2.76819        3.06004
H         -6.10859        2.12243        3.31910
H         -4.74275        1.46965        4.22762
H          2.64445       -3.76213        2.93841
H          3.88809       -4.31651        1.81480
H          4.33647       -3.75577        3.42729
H          1.09499        5.82730        1.12893
H          0.51247        6.31917       -0.46400
H         -0.38836        5.13080        0.47344
