171
-217.84740175
P         -1.58351        0.42747       -0.36766
P          1.56604       -0.33420       -0.20692
C         -0.80266        1.46083       -1.61945
C          0.96334       -1.22012       -1.64878
C          0.05675        0.91866       -2.56923
C          0.73297        1.78853       -3.44698
C          0.49626        3.15065       -3.36799
C         -0.38174        3.66649       -2.43919
C         -1.02281        2.81590       -1.56085
C          1.18271       -2.57376       -1.72086
C          0.70225       -3.29830       -2.79412
C         -0.01048       -2.65819       -3.78594
C         -0.24444       -1.29408       -3.73083
C          0.26584       -0.55208       -2.64803
Cl         1.47540        0.32765        2.98152
Cl        -1.74365       -0.13482        2.89478
C         -1.01074       -0.63562       -4.82447
C          1.70400        1.27890       -4.45399
H         -0.56165        4.72808       -2.39219
H         -1.70171        3.21436       -0.82531
H          1.73436       -3.06504       -0.93556
H          0.88370       -4.35877       -2.85608
H          1.01410        3.81025       -4.04387
H         -0.39508       -3.22056       -4.62003
C         -3.49270       -3.40983       -1.81642
C         -2.62087       -3.45921       -0.73563
C         -2.02307       -2.27311       -0.33218
C         -2.29077       -1.09745       -0.98853
C         -3.15803       -1.06334       -2.05277
C         -3.78258       -2.22730       -2.48638
H         -3.97721       -4.31133       -2.14089
H         -1.35651       -2.26181        0.51301
H         -3.35301       -0.11735       -2.52863
C         -4.77394        2.72360        1.90010
C         -3.44522        3.10445        2.04734
C         -2.48696        2.40767        1.32386
C         -2.84697        1.36289        0.50969
C         -4.16264        0.99131        0.38744
C         -5.15747        1.67147        1.07759
H         -5.53544        3.24935        2.44464
H         -1.44561        2.66800        1.41235
H         -4.40623        0.15566       -0.24364
C          4.21369       -3.06144        2.28033
C          2.83609       -3.23748        2.33532
C          2.04373       -2.41415        1.54493
C          2.61006       -1.42817        0.77513
C          3.97058       -1.24946        0.76023
C          4.80422       -2.06903        1.50725
H          4.83839       -3.71690        2.85654
H          0.97353       -2.52314        1.54034
H          4.38997       -0.45685        0.16672
C          3.93836        3.37608       -1.22894
C          2.87480        3.48422       -0.34181
C          2.15784        2.33232       -0.04645
C          2.48053        1.14101       -0.64603
C          3.51600        1.05577       -1.54410
C          4.27669        2.17876       -1.84783
H          4.53452        4.24752       -1.42684
H          1.34663        2.35266        0.65999
H          3.72952        0.10214       -1.99636
Pd        -0.09028        0.07117        1.39222
C         -0.83006       -5.09245       -0.10170
C         -2.32421       -4.75227        0.03657
C         -3.14596       -5.94067       -0.49839
C         -2.67959       -4.54635        1.52167
H         -0.57492       -5.98008        0.47684
H         -0.57654       -5.28539       -1.14333
H         -0.20493       -4.27169        0.24515
H         -2.93149       -6.84533        0.07049
H         -4.21523       -5.74560       -0.41821
H         -2.90806       -6.14454       -1.54223
H         -2.10541       -3.73184        1.96053
H         -3.73605       -4.30328        1.63307
H         -2.47732       -5.44728        2.10058
C         -6.17809       -2.67015       -3.06739
C         -4.81119       -2.23281       -3.62628
C         -4.36262       -3.21895       -4.72102
C         -4.97006       -0.83559       -4.25696
H         -6.13138       -3.67497       -2.64913
H         -6.50507       -1.99475       -2.27732
H         -6.93792       -2.66863       -3.84871
H         -4.30668       -4.23758       -4.33925
H         -5.06124       -3.21635       -5.55752
H         -3.37825       -2.95296       -5.10336
H         -5.32369       -0.11172       -3.52300
H         -4.02628       -0.47799       -4.66634
H         -5.69480       -0.85892       -5.07067
C         -1.88598        3.76355        3.90283
C         -3.00639        4.25469        2.96414
C         -4.17169        4.76791        3.83176
C         -2.48693        5.41461        2.09724
H         -0.99779        3.46734        3.34676
H         -1.59116        4.54613        4.60154
H         -2.21942        2.90178        4.48050
H         -4.96826        5.18478        3.21597
H         -4.58793        3.96525        4.44032
H         -3.83405        5.55480        4.50615
H         -1.65055        5.09557        1.47750
H         -3.27045        5.78122        1.43433
H         -2.14976        6.24590        2.71614
C         -7.45243        2.48559        0.47118
C         -6.63749        1.27789        0.96940
C         -7.14661        0.84100        2.35488
C         -6.84396        0.11159       -0.01797
H         -8.50564        2.22712        0.36250
H         -7.38553        3.32317        1.16442
H         -7.08593        2.82304       -0.49817
H         -8.19162        0.53509        2.30844
H         -6.56407       -0.00023        2.73009
H         -7.06750        1.65118        3.07882
H         -6.30664       -0.77905        0.30756
H         -7.89929       -0.15017       -0.09302
H         -6.49841        0.37871       -1.01647
C          0.71913       -4.08713        3.45449
C          2.22496       -4.32887        3.22644
C          2.91284       -4.33342        4.60640
C          2.41846       -5.69353        2.54529
H          0.15914       -4.18634        2.52715
H          0.31096       -4.81255        4.15799
H          0.54118       -3.09091        3.85945
H          2.43541       -5.04884        5.27582
H          3.96376       -4.60869        4.53230
H          2.85231       -3.34819        5.06838
H          1.98866       -6.49519        3.14562
H          1.93811       -5.70776        1.56711
H          3.47669       -5.90966        2.40037
C          6.62638       -0.40805        1.95401
C          6.32076       -1.83485        1.46021
C          6.81451       -1.99656        0.01048
C          7.08109       -2.83522        2.35146
H          6.14991        0.34085        1.32236
H          6.26131       -0.26707        2.97108
H          7.69885       -0.21432        1.94926
H          6.34049       -1.27315       -0.65150
H          7.89256       -1.84995       -0.05367
H          6.58571       -2.99361       -0.36535
H          6.77450       -2.74382        3.39328
H          6.90627       -3.86097        2.02736
H          8.15494       -2.65388        2.30689
C          1.23993        4.76244        1.12394
C          2.54881        4.83297        0.31313
C          2.38294        5.90947       -0.77621
C          3.69715        5.22247        1.25983
H          1.32632        4.06087        1.95330
H          0.99025        5.73672        1.54374
H          0.41056        4.44932        0.49061
H          1.60370        5.62483       -1.48227
H          2.10667        6.86817       -0.33758
H          3.30514        6.05580       -1.33684
H          3.49277        6.17337        1.75154
H          3.83272        4.46463        2.03130
H          4.63739        5.31962        0.71792
C          5.58800        0.75817       -3.50389
C          5.50988        2.10615       -2.75987
C          6.77281        2.26347       -1.89425
C          5.45845        3.23450       -3.80836
H          5.70417       -0.07140       -2.80732
H          4.69197        0.58517       -4.09886
H          6.44332        0.73849       -4.17914
H          7.67438        2.21240       -2.50442
H          6.77328        3.21992       -1.37221
H          6.82668        1.47435       -1.14443
H          5.49198        4.21749       -3.34085
H          6.30449        3.16752       -4.49218
H          4.54490        3.17542       -4.39855
H         -0.36294       -0.40873       -5.67206
H          2.61608        1.87586       -4.44499
H         -1.46494        0.29666       -4.48588
H         -1.81154       -1.28153       -5.18442
H          1.28474        1.32683       -5.45989
H          1.98592        0.24475       -4.25211
