171
-217.84681391
P         -1.56946        0.32274       -0.39623
P          1.64362       -0.41244       -0.20371
C         -0.78584        1.28995       -1.68943
C          1.02349       -1.38053       -1.58725
C          0.05325        0.68344       -2.61675
C          0.69804        1.48923       -3.57484
C          0.45473        2.85280       -3.58635
C         -0.39757        3.43133       -2.66962
C         -1.01174        2.64415       -1.71516
C          1.24991       -2.73559       -1.57699
C          0.72062       -3.53815       -2.56799
C         -0.05160       -2.97438       -3.56105
C         -0.29266       -1.61096       -3.59125
C          0.26927       -0.78904       -2.59512
Cl         1.38509        0.19978        3.01105
Cl        -1.81292       -0.64709        2.68501
C         -1.14394       -1.04738       -4.67496
C          1.61751        0.89855       -4.58594
H         -0.58394        4.49238       -2.69787
H         -1.67237        3.08626       -0.98654
H          1.84395       -3.17044       -0.79003
H          0.90446       -4.60008       -2.55926
H          0.94342        3.46398       -4.32631
H         -0.48172       -3.59712       -4.32734
C         -3.75019       -3.32773       -1.92714
C         -2.79764       -3.48563       -0.92826
C         -2.13979       -2.34967       -0.47568
C         -2.40825       -1.12415       -1.03134
C         -3.33108       -0.98792       -2.03896
C         -4.03149       -2.09492       -2.50370
H         -4.30509       -4.18886       -2.25036
H         -1.41889       -2.40954        0.32074
H         -3.50374       -0.00847       -2.45172
C         -4.48095        2.89873        1.94824
C         -3.11917        3.04722        2.18340
C         -2.24219        2.27024        1.43695
C         -2.71788        1.35452        0.53109
C         -4.06731        1.20144        0.33493
C         -4.97989        1.97773        1.03471
H         -5.16595        3.51898        2.49439
H         -1.17873        2.36036        1.57205
H         -4.41586        0.46271       -0.36468
C          4.52081       -2.75920        2.40491
C          3.19339       -3.16909        2.33898
C          2.33242       -2.45762        1.51429
C          2.78269       -1.37519        0.80099
C          4.09267       -0.97674        0.88795
C          4.99264       -1.66373        1.69025
H          5.20089       -3.30039        3.03388
H          1.29505       -2.73830        1.44256
H          4.41450       -0.11053        0.33661
C          3.69108        3.49514       -1.19166
C          2.67870        3.48900       -0.23961
C          2.04245        2.28299        0.01982
C          2.40672        1.14307       -0.65223
C          3.41111        1.16297       -1.58813
C          4.07926        2.34800       -1.87395
H          4.21093        4.41157       -1.39812
H          1.27260        2.22557        0.77011
H          3.67922        0.24129       -2.07609
Pd        -0.08001       -0.17480        1.34271
C         -3.77177       -5.32503        0.46044
C         -2.52999       -4.87138       -0.32608
C         -1.31998       -4.84606        0.62873
C         -2.23141       -5.87667       -1.45458
H         -3.61274       -6.30455        0.91102
H         -4.00036       -4.61844        1.25815
H         -4.64492       -5.39091       -0.18797
H         -1.10657       -5.84410        1.01108
H         -0.42887       -4.48860        0.11373
H         -1.50649       -4.20015        1.48634
H         -1.99178       -6.85897       -1.04781
H         -3.08474       -5.99424       -2.12104
H         -1.38359       -5.54330       -2.05196
C         -5.15101       -0.58022       -4.21553
C         -5.14606       -1.97210       -3.55265
C         -6.50220       -2.19108       -2.85858
C         -4.95269       -3.03114       -4.65545
H         -5.91712       -0.52304       -4.98865
H         -5.36345        0.20285       -3.48843
H         -4.19098       -0.36477       -4.68340
H         -7.32390       -2.10668       -3.56952
H         -6.55298       -3.17866       -2.40097
H         -6.65689       -1.45118       -2.07337
H         -3.97556       -2.92844       -5.12570
H         -5.02850       -4.04212       -4.25780
H         -5.71102       -2.92626       -5.43125
C         -3.42423        3.90703        4.53181
C         -2.61695        4.05574        3.22698
C         -2.78715        5.47821        2.66840
C         -1.13042        3.82334        3.56436
H         -3.36744        2.88393        4.90307
H         -3.03617        4.56835        5.30636
H         -4.47438        4.15547        4.38614
H         -3.83379        5.68933        2.45063
H         -2.43356        6.22328        3.38087
H         -2.22273        5.59903        1.74386
H         -0.96084        2.79936        3.89725
H         -0.49680        4.01403        2.70072
H         -0.80338        4.49198        4.36041
C         -6.78994        2.04259       -0.69961
C         -6.48091        1.77408        0.78512
C         -7.33666        2.72496        1.64340
C         -6.85808        0.32260        1.13689
H         -7.85341        1.92191       -0.90517
H         -6.50527        3.05798       -0.97467
H         -6.24631        1.35607       -1.34732
H         -8.39824        2.56806        1.45248
H         -7.16462        2.55581        2.70620
H         -7.11146        3.76706        1.41734
H         -6.31238       -0.38960        0.51894
H         -6.62452        0.10674        2.17921
H         -7.92309        0.14795        0.98523
C          1.42213       -3.91522        3.95366
C          2.64925       -4.36361        3.13499
C          3.70101       -4.92761        4.10936
C          2.23999       -5.47529        2.15293
H          0.61113       -3.57978        3.30879
H          1.04080       -4.73281        4.56496
H          1.68304       -3.09020        4.61605
H          3.28763       -5.75320        4.68859
H          4.57107       -5.30686        3.57386
H          4.03223       -4.16315        4.81201
H          1.47941       -5.12340        1.45780
H          3.09726       -5.80722        1.56757
H          1.83717       -6.33786        2.68346
C          7.06808       -1.20556        0.35956
C          6.44523       -1.17304        1.76794
C          7.29691       -2.05423        2.70124
C          6.46124        0.27035        2.30612
H          8.10646       -0.87552        0.38414
H          7.04374       -2.21560       -0.04897
H          6.52855       -0.55441       -0.32713
H          6.90383       -2.04322        3.71766
H          7.32300       -3.08586        2.35075
H          8.32468       -1.69357        2.74171
H          5.91509        0.94513        1.64774
H          5.99766        0.31829        3.29121
H          7.48147        0.64351        2.39328
C          2.45440        4.45848        2.05926
C          2.27223        4.73778        0.55498
C          0.79877        5.06924        0.25956
C          3.13116        5.96036        0.17968
H          1.84619        3.61595        2.38497
H          3.49430        4.22072        2.28214
H          2.17062        5.32568        2.65518
H          0.66580        5.31339       -0.79358
H          0.15008        4.22573        0.48907
H          0.46335        5.92313        0.84784
H          2.83160        6.83455        0.75769
H          4.18594        5.77585        0.38266
H          3.01969        6.20927       -0.87550
C          4.98475        3.46684       -3.93439
C          5.26115        2.40654       -2.85201
C          5.49648        1.04952       -3.54403
C          6.53562        2.78117       -2.07292
H          5.79690        3.50296       -4.66030
H          4.06365        3.24215       -4.47056
H          4.88384        4.46098       -3.50098
H          4.61578        0.73348       -4.10152
H          6.32695        1.11306       -4.24702
H          5.74078        0.27497       -2.81740
H          6.43670        3.75772       -1.60020
H          6.73680        2.05027       -1.28979
H          7.40158        2.81555       -2.73376
H         -2.03885       -1.65376       -4.81628
H          1.09469        0.70911       -5.52422
H         -0.60424       -1.02310       -5.62261
H         -1.46827       -0.03214       -4.44291
H          2.03858       -0.04519       -4.23643
H          2.44785        1.57203       -4.79920
