58
-89.86550909
P          1.66329        0.21831        0.82401
C          2.96493        1.43741        0.59351
C          3.98030        1.18312       -0.30021
C          4.96806        2.12856       -0.50976
C          4.92781        3.32742        0.17384
C          3.90130        3.58400        1.06097
C          2.91469        2.63639        1.26777
H          2.09880        2.83466        1.94394
H          3.98968        0.25012       -0.84067
C          2.26800       -1.41850        0.39717
C          3.48125       -1.84004        0.89189
C          3.94215       -3.11027        0.59341
C          3.17949       -3.95297       -0.19117
C          1.95804       -3.52954       -0.67532
C          1.50382       -2.25834       -0.37755
H          0.54518       -1.92480       -0.73351
H          4.06194       -1.17399        1.51054
C          1.16996        0.17496        2.58931
C          0.14107       -0.90848        2.87636
C         -1.28190       -0.50132        2.53158
P         -1.65753       -0.38176        0.73302
C         -3.23738        0.46457        0.62201
C         -4.36475       -0.22279        0.23471
C         -5.57588        0.43911        0.14416
C         -5.64730        1.78576        0.44198
C         -4.51275        2.47117        0.82970
C         -3.30274        1.80628        0.92009
H         -2.40612        2.32974        1.21315
H         -4.29155       -1.27233       -0.00030
C         -1.74602       -1.99603       -0.05270
C         -1.64181       -3.16180        0.67251
C         -1.68310       -4.38109        0.02058
C         -1.82990       -4.42584       -1.35193
C         -1.93949       -3.25505       -2.07514
C         -1.89791       -2.03873       -1.41999
H         -1.97405       -1.11214       -1.96596
H         -1.52562       -3.12020        1.74269
Pd        -0.11904        0.81737       -0.53602
Cl         1.22113        2.23149       -1.65336
Cl        -1.83264        1.18628       -1.95483
H         -2.01142       -1.20124        2.94587
H         -1.51095        0.47379        2.96586
H          0.41113       -1.82327        2.33186
H          0.18794       -1.18113        3.94249
H          2.09360        0.00795        3.14914
H          0.79458        1.15867        2.87520
H          5.76284        1.93141       -1.21024
H          3.86413        4.52376        1.58706
H          4.89385       -3.44147        0.97528
H          1.35451       -4.18867       -1.27728
H         -6.46041       -0.09498       -0.16181
H         -4.56751        3.52302        1.05739
H         -1.59757       -5.29559        0.58422
H         -2.05432       -3.28733       -3.14608
H          5.69456        4.06685        0.00934
H          3.53618       -4.94344       -0.42240
H         -6.58977        2.30356        0.36879
H         -1.85993       -5.37633       -1.85926
