111
-148.55524231
P         -2.49797       -2.09018       -0.97210
P          0.13863       -0.40027       -0.51979
C         -1.37539       -1.78480       -2.36352
C         -0.20844       -1.08307       -2.15116
C         -3.27233       -3.76877       -1.06328
C         -2.66695       -4.71255       -0.04727
C         -1.68487       -2.23699       -3.63033
H         -2.60848       -2.76671       -3.79661
C         -0.81589       -1.99277       -4.67991
H         -1.05650       -2.34572       -5.66944
C          0.35694       -1.29529       -4.46210
H          1.03202       -1.10354       -5.27982
C          0.65971       -0.83455       -3.19336
H          1.56310       -0.27459       -3.00787
Pd        -1.32365       -1.47003        0.91502
Cl        -3.03646       -2.26122        2.12955
Cl        -0.05619       -0.84485        2.66130
C         -4.76785       -3.46702       -0.85227
C         -4.01110       -1.02555       -0.99929
H         -3.12553       -5.70280       -0.09907
H         -1.59162       -4.82719       -0.20348
H         -2.81153       -4.33607        0.96629
H         -5.00038       -3.57131        0.21652
H         -5.38761       -4.21866       -1.36447
H         -4.12815       -0.63817        0.02177
C         -5.13350       -2.02957       -1.32180
C         -3.87050        0.10874       -1.99119
H         -3.09821       -4.13771       -2.08199
H         -5.30543       -2.03129       -2.40698
H         -6.08282       -1.69943       -0.87324
H         -3.68820       -0.27568       -2.99644
H         -4.77372        0.72216       -2.02810
H         -3.03164        0.75787       -1.73136
C         -1.19448        3.94459       -0.22399
C         -1.07389        3.33959       -1.50192
C         -0.65311        2.02174       -1.56784
C         -0.43426        1.29457       -0.42771
C         -0.66033        1.84184        0.80713
C         -1.07652        3.15317        0.94671
O         -1.39146        5.34710       -0.11811
C         -1.35824        4.10196       -2.80540
H         -0.48035        1.54531       -2.51654
H         -0.49213        1.22101        1.66989
C         -1.35715        3.69481        2.35651
C          4.46240       -0.75286        0.86140
C          3.77594        0.48181        0.98341
C          2.46256        0.54360        0.55196
C          1.85641       -0.53304       -0.04021
C          2.54578       -1.69816       -0.25084
C          3.86620       -1.82657        0.15033
O          5.72707       -0.92652        1.48394
C          4.40768        1.73269        1.61379
H          1.88415        1.43953        0.69175
H          2.03017       -2.51460       -0.72657
C          4.61781       -3.13112       -0.15794
C         -2.47016        5.14728       -2.60282
C         -0.06952        4.78625       -3.28537
C         -1.84457        3.13636       -3.91022
C         -1.89360        2.56991        3.27219
C         -0.05238        4.23802        2.95901
C         -2.43056        4.79756        2.32658
C         -0.18413        6.09444       -0.03750
H         -2.71753        5.64333       -3.54101
H         -3.37449        4.67589       -2.21936
H         -2.16819        5.91507       -1.89470
H          0.29694        5.49707       -2.54868
H          0.71637        4.05089       -3.45643
H         -0.23727        5.32470       -4.21779
H         -1.05872        2.45034       -4.22268
H         -2.69597        2.55013       -3.56617
H         -2.15671        3.68900       -4.79607
H         -1.13148        1.82137        3.48307
H         -2.21843        2.97304        4.23099
H         -2.74587        2.06962        2.81313
H         -0.21854        4.62881        3.96250
H          0.69836        3.45076        3.02397
H          0.36024        5.03876        2.34962
H         -2.67406        5.13497        3.33371
H         -2.09500        5.66366        1.76199
H         -3.34469        4.42996        1.86156
H         -0.15359        6.82564       -0.84519
H         -0.14725        6.63181        0.90988
H          0.67944        5.43230       -0.11306
C          5.65149       -1.40952        2.81945
C          4.12170        1.73632        3.12327
C          5.92476        1.77930        1.35809
C          3.80738        3.01750        0.99651
C          6.12121       -2.87100       -0.36437
C          4.40558       -4.12444        0.99450
C          4.08947       -3.76898       -1.46307
H          3.04822        1.73034        3.31130
H          4.54576        0.85966        3.60695
H          4.54348        2.62128        3.59904
H          6.36071        2.69672        1.75279
H          6.43343        0.94355        1.83176
H          6.13507        1.73580        0.28999
H          2.76202        3.14912        1.27172
H          4.34202        3.90059        1.34565
H          3.87513        2.99347       -0.09080
H          6.58748       -2.49520        0.54291
H          6.64195       -3.78544       -0.64739
H          6.27853       -2.13361       -1.15080
H          4.78527       -3.72692        1.93258
H          3.34526       -4.33628        1.13002
H          4.91605       -5.06671        0.79708
H          3.06984       -4.13414       -1.35000
H          4.70352       -4.62128       -1.75318
H          4.10787       -3.04936       -2.28120
H          6.20060       -2.34747        2.90060
H          6.10845       -0.68815        3.49661
H          4.61154       -1.57006        3.10686
