87
-129.18170841
P         -1.49416       -0.10269       -0.35965
P          1.81090        0.30416        0.21982
C         -1.02101        1.07737       -1.62807
C          1.53097       -0.81790       -1.17408
C          0.05021        0.75691       -2.45156
C          0.43101        1.66669       -3.45807
C         -0.28986        2.84004       -3.61056
C         -1.35975        3.13200       -2.78954
C         -1.72397        2.24507       -1.79554
C          2.10960       -2.05434       -1.00377
C          1.92124       -3.05134       -1.94157
C          1.13112       -2.80748       -3.04325
C          0.52206       -1.57808       -3.22688
C          0.73480       -0.55212       -2.28615
Cl         1.10222       -0.37945        3.36238
Cl        -1.63080       -1.78669        2.35479
H         -1.90763        4.05073       -2.92037
H         -2.56385        2.45901       -1.15599
H          2.70308       -2.24136       -0.12099
H          2.37861       -4.01736       -1.80408
H         -0.00016        3.53270       -4.38242
H          0.96623       -3.58524       -3.76959
C         -2.85612       -3.92158       -2.41006
C         -1.91211       -4.00127       -1.39545
C         -1.52487       -2.82978       -0.75705
C         -2.04882       -1.61843       -1.14298
C         -2.97639       -1.54573       -2.15557
C         -3.38640       -2.70405       -2.78958
H         -3.17316       -4.82490       -2.90273
C         -1.34713       -5.31101       -0.97203
H         -0.80520       -2.86953        0.04286
H         -3.36750       -0.58397       -2.44880
H         -4.11474       -2.65501       -3.58234
C         -4.87733        1.58382        2.18701
C         -3.70556        2.29919        2.04055
C         -2.68113        1.79066        1.26568
C         -2.83682        0.57907        0.63509
C         -4.00183       -0.13682        0.78322
C         -5.03881        0.35153        1.56903
H         -5.67841        1.97770        2.78904
H         -3.58810        3.25128        2.53166
H         -1.76089        2.33557        1.14310
H         -4.10554       -1.09072        0.29476
C         -6.30441       -0.41792        1.71397
C          6.19344       -0.09270        1.38666
C          5.83810        0.14600        0.07362
C          4.50351        0.26015       -0.27029
C          3.53686        0.13639        0.70079
C          3.89094       -0.10159        2.00691
C          5.22467       -0.22799        2.37108
H          7.23201       -0.17589        1.65839
H          6.59934        0.24464       -0.68282
H          4.20995        0.44013       -1.29261
H          3.12064       -0.19580        2.75109
C          5.60364       -0.46214        3.79127
C          0.91440        4.73676       -0.25251
C          1.72286        4.10514       -1.17689
C          2.00743        2.75960       -1.03901
C          1.47126        2.05640        0.01320
C          0.69858        2.69228        0.95813
C          0.40027        4.04412        0.83442
H          0.68290        5.78249       -0.36290
H          2.12470        4.65743       -2.01047
H          2.63282        2.25061       -1.75419
H          0.35583        2.14217        1.81855
C         -0.45836        4.73616        1.83429
Pd        -0.03975       -0.49002        1.44024
C          1.58677        1.39199       -4.35547
C         -0.35863       -1.37840       -4.41173
H          1.24646        1.11370       -5.35363
H          2.22280        2.27318       -4.45154
H          2.20573        0.58013       -3.97158
H         -1.00052       -2.24651       -4.56834
H         -1.00817       -0.51154       -4.28651
H          0.23289       -1.23062       -5.31600
H         -1.35690       -6.02940       -1.79295
H         -0.31360       -5.20194       -0.63982
H         -1.92306       -5.73211       -0.14688
H         -6.11643       -1.49187        1.67454
H         -6.78994       -0.20224        2.66676
H         -7.00356       -0.16841        0.91459
H          6.51572       -1.05637        3.86272
H          5.77537        0.48366        4.30694
H          4.81670       -0.99747        4.32460
H         -1.43941        4.96103        1.41327
H         -0.60703        4.12162        2.72338
H         -0.00518        5.67584        2.15315
