105
-153.06578335
Cl        -0.60765        3.04987       -2.34048
Pd         0.14369        1.83841       -0.60639
P          1.26123        0.51073        1.03271
N          1.34227       -1.25513        1.05734
C          0.42460       -2.29319        1.28088
C          0.08144       -3.11405        0.17787
C         -0.84221       -4.15862        0.33508
C         -1.26326       -4.94220       -0.88214
C         -1.99742       -6.25268       -0.55592
C         -3.04487       -6.03579        0.54216
C         -2.39125       -5.50739        1.82981
C         -1.39744       -4.39773        1.59490
C         -1.03522       -3.58838        2.66942
C         -0.14413       -2.55468        2.52252
H          0.11978       -1.93696        3.36110
H         -1.47137       -3.78294        3.63464
H         -3.16071       -5.15291        2.52761
H         -3.79207       -5.31281        0.19127
H         -2.46121       -6.67596       -1.45804
H         -1.90580       -4.30237       -1.49890
C          0.52266       -2.63024       -1.15844
C         -0.22780       -1.55783       -1.70279
C          0.28466       -0.84424       -2.78276
C          1.49914       -1.18621       -3.32128
C          2.25721       -2.23118       -2.79784
C          3.60441       -2.52145       -3.40674
C          4.55528       -3.24738       -2.44283
C          3.85577       -4.45201       -1.80308
C          2.60396       -4.01835       -1.02145
C          1.77523       -2.95802       -1.70485
H          1.96521       -4.88649       -0.81643
H          4.54989       -5.00313       -1.15315
H          4.87324       -2.55230       -1.65530
H          4.05426       -1.58154       -3.75125
H          1.88909       -0.62760       -4.15532
H         -0.27091       -0.00530       -3.16235
N         -1.39366       -1.17944       -1.04793
P         -1.78406        0.50779       -0.81237
C         -2.49188        0.68725        0.82651
C         -1.74584        0.17720        1.85974
C         -2.19671        0.29058        3.16096
C         -3.40039        0.92257        3.43528
C         -4.15356        1.41144        2.37558
C         -3.69963        1.29525        1.07444
H         -4.28563        1.67322        0.25400
H         -5.09791        1.88774        2.57678
C         -3.88344        1.04315        4.83849
H         -1.60650       -0.09597        3.97378
H         -0.80247       -0.29591        1.63937
C         -2.92425        1.04839       -2.08529
C         -3.25908        0.14153       -3.06214
C         -4.13918        0.50182       -4.06711
C         -4.68477        1.77814       -4.10003
C         -4.34189        2.67668       -3.09837
C         -3.46213        2.31308       -2.09524
H         -3.17443        3.01907       -1.33247
H         -4.76473        3.66670       -3.11192
C         -5.64884        2.16462       -5.16720
H         -4.40704       -0.20731       -4.83156
H         -2.82968       -0.84706       -3.02796
H         -1.63261       -1.67919       -0.20185
H          1.78575       -1.32045        0.14867
C          1.02622        1.18230        2.67310
C          1.37922        0.41209        3.75473
C          1.15897        0.88522        5.03600
C          0.58226        2.13244        5.23716
C          0.26354        2.90824        4.13046
C          0.48791        2.43464        2.85108
H          0.25574        3.04041        1.99050
H         -0.16233        3.88608        4.27700
C          0.34976        2.64823        6.61439
H          1.43077        0.28552        5.88776
H          1.83045       -0.55309        3.58884
C          2.94990        0.85682        0.50405
C          3.85631        1.42497        1.36645
C          5.15072        1.66332        0.94260
C          5.54348        1.33619       -0.34847
C          4.61627        0.75155       -1.20000
C          3.32242        0.51559       -0.77409
H          2.60141        0.06343       -1.43542
H          4.91317        0.48364       -2.19952
C          6.94330        1.56975       -0.79914
H          5.86562        2.10686        1.61438
H          3.54833        1.68154        2.36683
Cl         1.78787        3.32834       -0.22388
H         -1.88087       -6.32774        2.34836
H         -1.27028       -7.00247       -0.21988
H         -3.60164       -6.96316        0.73785
H         -0.37842       -5.14489       -1.49840
H          3.56602       -5.16030       -2.58933
H          2.90105       -3.63966       -0.03606
H          3.45809       -3.12620       -4.30954
H          5.47717       -3.55537       -2.95616
H         -4.39710        0.13304        5.15115
H         -3.05247        1.21414        5.52462
H         -4.57851        1.87685        4.94707
H         -5.57663        3.22887       -5.39562
H         -5.45639        1.61515       -6.08974
H         -6.67371        1.95513       -4.85790
H          0.18999        1.83125        7.31949
H          1.20582        3.22925        6.96004
H         -0.53066        3.29156        6.64933
H          7.56524        0.69589       -0.60038
H          6.98243        1.77473       -1.86989
H          7.38582        2.42297       -0.28323
