58
-89.86891990
P          1.56323        0.00340        0.77893
C          2.92782        1.16920        0.71938
C          2.69608        2.52027        0.84043
C          3.75720        3.40635        0.79052
C          5.04317        2.93220        0.62184
C          5.27113        1.57554        0.50206
C          4.20780        0.69194        0.55128
H          4.36852       -0.36997        0.45428
H          1.68678        2.88012        0.95904
C          2.02589       -1.55203        0.00570
C          2.32001       -2.66732        0.75708
C          2.66473       -3.84848        0.12503
C          2.71837       -3.90323       -1.25393
C          2.43642       -2.77847       -2.00327
C          2.09333       -1.60002       -1.36776
H          1.88309       -0.70599       -1.93265
H          2.28123       -2.61398        1.83270
C          1.06298       -0.21175        2.53897
C          0.02820        0.82406        2.95831
C         -1.40742        0.42506        2.65213
P         -1.73829        0.01639        0.88280
C         -3.43998        0.44531        0.50244
C         -3.84830        1.75312        0.62951
C         -5.15564        2.09682        0.33409
C         -6.04427        1.12661       -0.08554
C         -5.62980       -0.18463       -0.21159
C         -4.32198       -0.52472        0.08348
H         -3.98362       -1.54345       -0.01376
H         -3.13922        2.50224        0.94534
C         -1.41330       -1.70697        0.46662
C         -1.39082       -2.04226       -0.86852
C         -1.11193       -3.34105       -1.25225
C         -0.86028       -4.29971       -0.29184
C         -0.89368       -3.96299        1.04667
C         -1.17323       -2.66320        1.42643
H         -1.21489       -2.40160        2.47012
H         -1.58511       -1.27836       -1.60542
Pd        -0.12120        0.90550       -0.53546
Cl         1.42130        1.57267       -2.02530
Cl        -1.83922        1.63135       -1.78623
H         -1.70665       -0.44132        3.24370
H         -2.09782        1.22872        2.91986
H          0.12156        1.03080        4.03602
H          0.25890        1.77761        2.46388
H          0.68447       -1.22296        2.68727
H          1.98326       -0.12833        3.12294
H          3.57871        4.46544        0.87853
H          6.27410        1.20509        0.36760
H          2.88809       -4.72602        0.70925
H          2.48337       -2.81719       -3.07909
H         -5.47717        3.12116        0.42676
H         -6.32219       -0.94148       -0.54182
H         -1.08423       -3.60053       -2.29771
H         -0.69921       -4.71255        1.79617
H          5.86998        3.62243        0.58064
H          2.98350       -4.82479       -1.74594
H         -7.06221        1.39389       -0.31809
H         -0.63572       -5.31162       -0.58724
