171
-217.84299053
P         -1.58141        0.36619       -0.51663
P          1.58647       -0.34960       -0.27137
C         -0.80732        1.37049       -1.78984
C          1.03931       -1.28285       -1.70359
C          0.08252        0.80573       -2.69652
C          0.75929        1.65140       -3.59727
C          0.48848        3.00937       -3.58575
C         -0.42410        3.54488       -2.70230
C         -1.06295        2.72035       -1.79745
C          1.31276       -2.62802       -1.74750
C          0.85907       -3.39452       -2.80292
C          0.11083       -2.80676       -3.80069
C         -0.17652       -1.45196       -3.77387
C          0.31763       -0.66385       -2.71713
Cl         1.38012        0.37263        2.89322
Cl        -1.82028       -0.42591        2.69062
C         -0.97767       -0.84645       -4.87248
C          1.76550        1.12070       -4.55805
H         -0.63193        4.60237       -2.71133
H         -1.76606        3.13380       -1.09303
H          1.88519       -3.08050       -0.95386
H          1.08408       -4.44780       -2.84263
H          1.00542        3.65013       -4.28019
H         -0.25751       -3.40320       -4.61828
C         -3.69811       -3.40505       -1.84352
C         -2.72224       -3.48903       -0.85731
C         -2.05410       -2.32373       -0.50696
C         -2.36579       -1.13069       -1.11032
C         -3.33537       -1.06282       -2.08033
C         -4.03060       -2.20428       -2.46143
H         -4.22019       -4.29725       -2.12994
H         -1.29032       -2.34240        0.25124
H         -3.56379       -0.10879       -2.52568
C         -4.51220        2.72557        2.02610
C         -3.17315        3.09889        2.02133
C         -2.30540        2.39030        1.20134
C         -2.75750        1.34006        0.44152
C         -4.08023        0.97599        0.47119
C         -4.98718        1.66131        1.26806
H         -5.20027        3.27255        2.64101
H         -1.26020        2.64604        1.16711
H         -4.40589        0.14010       -0.12250
C          4.19723       -2.84810        2.47788
C          2.84951       -3.17099        2.36099
C          2.07333       -2.42043        1.48797
C          2.62323       -1.38038        0.78079
C          3.95289       -1.07029        0.91561
C          4.77123       -1.80199        1.76426
H          4.81151       -3.41693        3.14879
H          1.02280       -2.63143        1.38000
H          4.35444       -0.23548        0.36845
C          3.93488        3.40417       -1.18064
C          2.87322        3.47639       -0.28651
C          2.14595        2.31819       -0.04998
C          2.47092        1.14861       -0.68946
C          3.52023        1.09199       -1.57324
C          4.28002        2.22663       -1.83370
H          4.52749        4.28079       -1.36231
H          1.33440        2.32104        0.65748
H          3.75039        0.14920       -2.03989
Pd        -0.12922       -0.01310        1.27736
C         -0.97736       -5.26528       -0.64220
C         -2.36239       -4.80821       -0.15820
C         -3.38690       -5.91634       -0.47012
C         -2.33517       -4.59632        1.36915
H         -0.67487       -6.19050       -0.15211
H         -0.98514       -5.43887       -1.71794
H         -0.22427       -4.50748       -0.43199
H         -3.14867       -6.82790        0.07794
H         -4.39282       -5.60953       -0.18392
H         -3.38915       -6.16553       -1.53092
H         -3.29533       -4.22117        1.72248
H         -2.12585       -5.53120        1.88872
H         -1.56919       -3.88021        1.66207
C         -5.87043       -3.44638       -3.71330
C         -5.15710       -2.09685       -3.50089
C         -4.57123       -1.63848       -4.84702
C         -6.19842       -1.07107       -3.01539
H         -5.18027       -4.20110       -4.08989
H         -6.30825       -3.80891       -2.78335
H         -6.67630       -3.34703       -4.44044
H         -4.07613       -0.67275       -4.75299
H         -3.84214       -2.36069       -5.21284
H         -5.35340       -1.54051       -5.59967
H         -6.59547       -1.35756       -2.04167
H         -5.76084       -0.07798       -2.92299
H         -7.03296       -1.00151       -3.71287
C         -2.38438        5.46885        1.93697
C         -2.63876        4.26726        2.86227
C         -1.32241        3.85491        3.55327
C         -3.64134        4.68199        3.95700
H         -1.68186        5.20966        1.14645
H         -3.31062        5.79354        1.46324
H         -1.97351        6.31167        2.49250
H         -0.53295        3.65883        2.83001
H         -0.96724        4.64257        4.21742
H         -1.46542        2.95165        4.14599
H         -4.55989        5.07769        3.52474
H         -3.89519        3.83413        4.59307
H         -3.21984        5.46097        4.59224
C         -7.07459        1.51333       -0.10328
C         -6.45965        1.22623        1.27737
C         -7.27176        1.98156        2.34709
C         -6.54688       -0.28266        1.58108
H         -8.11893        1.20374       -0.13926
H         -7.02832        2.57787       -0.33214
H         -6.53875        0.98111       -0.88755
H         -8.30446        1.63343        2.36547
H         -6.85112        1.82417        3.34014
H         -7.29134        3.05213        2.14449
H         -6.06657       -0.51107        2.53227
H         -7.58501       -0.60920        1.63936
H         -6.05809       -0.87555        0.80911
C          1.06729       -3.66041        4.05032
C          2.18352       -4.28030        3.18738
C          3.18926       -4.98293        4.11902
C          1.58060       -5.33039        2.23780
H          0.30146       -3.19210        3.43336
H          0.58226       -4.41773        4.66572
H          1.47309       -2.89487        4.71117
H          2.69823       -5.76512        4.69786
H          3.99228       -5.44978        3.54894
H          3.62880       -4.27807        4.82450
H          0.82062       -4.88725        1.59749
H          2.35056       -5.75933        1.59680
H          1.11351       -6.14129        2.79643
C          6.33829        0.04285        2.41036
C          6.24873       -1.40690        1.89688
C          6.92699       -1.50915        0.51784
C          6.99927       -2.32339        2.88163
H          7.37650        0.34870        2.53800
H          5.86904        0.73926        1.71621
H          5.83532        0.14148        3.37208
H          6.45933       -0.84056       -0.20386
H          7.98239       -1.24474        0.58118
H          6.85541       -2.52428        0.12791
H          6.96984       -3.36159        2.55141
H          8.04656       -2.03162        2.95951
H          6.56607       -2.26467        3.87994
C          1.06324        5.16187        0.09776
C          2.50142        4.76038        0.46724
C          3.44197        5.92706        0.11081
C          2.59501        4.50169        1.98310
H          0.36099        4.36476        0.33591
H          0.75516        6.05655        0.63843
H          0.98510        5.36792       -0.96913
H          3.16123        6.82919        0.65428
H          4.47395        5.69256        0.37122
H          3.39658        6.15621       -0.95374
H          2.34135        5.39792        2.54888
H          1.91617        3.70873        2.29368
H          3.60520        4.20099        2.25999
C          5.66818        0.82786       -3.44584
C          5.51727        2.19113       -2.74230
C          6.77125        2.43787       -1.88349
C          5.40498        3.28616       -3.82007
H          5.80897        0.02512       -2.72242
H          4.79159        0.59739       -4.05018
H          6.53472        0.82799       -4.10692
H          6.72997        3.41191       -1.39709
H          6.86027        1.68012       -1.10520
H          7.67465        2.40505       -2.49223
H          4.50176        3.15497       -4.41449
H          5.37114        4.28033       -3.37656
H          6.25943        3.25522       -4.49596
H         -1.67743       -1.57033       -5.29067
H          1.37833        1.13617       -5.57775
H         -0.33346       -0.50391       -5.68290
H         -1.55539        0.00712       -4.51476
H          2.04889        0.09521       -4.31778
H          2.67240        1.72519       -4.53774
