87
-129.18485002
P         -1.69012       -0.36381       -0.11387
P          1.55859        0.34004       -0.20301
C         -1.44462        0.97131       -1.31134
C          1.30950       -0.64859       -1.68151
C         -0.50195        0.93099       -2.33723
C         -0.30113        2.08398       -3.12086
C         -1.06531        3.21232       -2.87950
C         -2.00455        3.23047       -1.87234
C         -2.18272        2.10944       -1.08600
C          2.10390       -1.74659       -1.90312
C          1.92310       -2.51446       -3.03638
C          0.94177       -2.17374       -3.94340
C          0.12785       -1.07198       -3.73729
C          0.31813       -0.28469       -2.58386
Cl         1.29581        1.14043        2.95136
Cl        -1.38080       -0.77721        3.04120
H         -2.58699        4.11856       -1.68927
H         -2.90023        2.12542       -0.28217
H          2.87228       -2.00137       -1.19242
H          2.54407       -3.37823       -3.20861
H         -0.90904        4.08850       -3.48576
H          0.79391       -2.77299       -4.82576
C         -0.85924       -4.59173       -1.55670
C         -0.35242       -4.17109       -0.33478
C         -0.64043       -2.88042        0.09069
C         -1.39652       -2.03772       -0.69148
C         -1.92058       -2.47236       -1.88571
C         -1.64935       -3.75590       -2.32170
H         -0.63202       -5.58536       -1.90355
C          0.51579       -5.06129        0.48244
H         -0.29888       -2.54410        1.05464
H         -2.51999       -1.79988       -2.47841
H         -2.04296       -4.09815       -3.26470
C         -5.82171       -0.02910        1.77076
C         -5.58184       -0.97486        0.79365
C         -4.32560       -1.07629        0.22588
C         -3.31937       -0.23493        0.64013
C         -3.55733        0.70950        1.61197
C         -4.81530        0.83012        2.18968
H         -6.79666        0.04544        2.22154
H         -6.37129       -1.63634        0.47637
H         -4.12282       -1.81328       -0.53396
H         -2.75503        1.34799        1.94348
C         -5.05462        1.82664        3.26870
C          4.92677       -1.45405        2.28852
C          5.05468       -0.17409        1.78599
C          4.03853        0.37343        1.02593
C          2.90649       -0.36347        0.76937
C          2.77556       -1.63713        1.27295
C          3.78234       -2.20117        2.04584
H          5.71802       -1.88278        2.87957
H          5.94405        0.39969        1.98906
H          4.12004        1.37535        0.63772
H          1.88426       -2.20324        1.06348
C          3.63737       -3.58553        2.57247
C          2.41041        4.65164       -1.34335
C          3.14197        3.62974       -1.91636
C          2.89031        2.31771       -1.56004
C          1.91817        2.04353       -0.62709
C          1.19406        3.05870       -0.04696
C          1.42087        4.38105       -0.40805
H          2.60322        5.67389       -1.62095
H          3.90370        3.85303       -2.64524
H          3.43832        1.50490       -2.01050
H          0.44090        2.82558        0.68668
C          0.63712        5.47828        0.22105
Pd        -0.04958        0.12359        1.47764
C          0.72407        2.12362       -4.20098
C         -0.92997       -0.74940       -4.73462
H          1.44383        1.31070       -4.10012
H          0.25770        2.04301       -5.18355
H          1.28302        3.05998       -4.17084
H         -1.63901       -0.01871       -4.34387
H         -0.49271       -0.34091       -5.64651
H         -1.49446       -1.64292       -5.00517
H          0.42804       -4.82846        1.54466
H          0.24257       -6.10894        0.34911
H          1.56272       -4.94655        0.19779
H         -4.50655        2.75030        3.07691
H         -6.11302        2.07885        3.34770
H         -4.72771        1.43600        4.23336
H          2.62404       -3.75879        2.93789
H          3.84566       -4.32049        1.79361
H          4.32341       -3.76861        3.40058
H          1.09932        5.79710        1.15626
H          0.57297        6.34558       -0.43757
H         -0.38118        5.15449        0.44185
