72
-108.40251267
Cl         1.70518       -0.98299        2.65221
Cl        -0.96218        0.62693        2.82150
P         -1.07499        1.17766       -0.26421
P          2.25661       -0.13731       -0.38133
C          3.27667        1.43428       -0.07476
C          3.61907        1.52180        1.41390
C          4.54932        1.39967       -0.91318
C          3.31125       -1.71232       -0.20620
C          4.13159       -1.95082       -1.48005
C          1.42914       -0.35018       -2.06495
C          1.49617        0.87251       -2.95472
C         -1.14625       -0.15349       -1.49392
C          0.00838       -0.88833       -2.00323
C         -0.51901       -1.95378       -2.85860
C         -1.96439       -1.83279       -2.91879
C         -2.35041       -0.72017       -2.07114
C          2.45111        2.66167       -0.43720
H          2.71958        1.50898        2.02951
H          4.25872        0.70632        1.74017
H          5.09593        2.33943       -0.81888
H          4.32684        1.25199       -1.96931
C          4.25698       -1.64840        0.98919
H          4.65417       -1.05192       -1.80122
H          3.51370       -2.29725       -2.30753
H          2.02683       -1.13424       -2.53896
H          1.09411        0.65693       -3.94698
H          2.51674        1.23177       -3.08653
H          0.89341        1.67870       -2.54193
H          0.08720       -2.63847       -3.45527
H         -2.64024       -2.45928       -3.50525
Pd         0.51252        0.20493        1.16655
H         -3.36611       -0.37624       -1.86373
C          2.32582       -2.85535       -0.01545
H          4.88176       -2.72494       -1.31019
H          3.72738       -1.39099        1.90412
H          4.73035       -2.61773        1.15215
H          5.05795       -0.92886        0.83008
H          1.81763       -2.76579        0.94333
H          1.57668       -2.86271       -0.80837
H          2.83835       -3.81936       -0.02698
H          4.15004        2.45016        1.63068
H          5.22015        0.60499       -0.59144
H          2.26797        2.73338       -1.50624
H          1.49415        2.65177        0.08207
H          2.96972        3.57615       -0.14489
C         -2.70057        1.31478        0.50407
C         -3.06661        2.39386        1.26794
C         -4.37274        2.16085        1.70116
C         -4.74854        0.94746        1.17778
O         -3.73097        0.41804        0.43704
H         -2.44655        3.24910        1.48692
H         -4.96783        2.80554        2.32712
H         -5.70769        0.46576        1.32264
C         -0.75513        2.79206       -0.99261
C         -1.13836        3.12078       -2.26892
C         -0.75041        4.44465       -2.48170
C         -0.15210        4.86939       -1.32032
O         -0.14948        3.86365       -0.39590
H         -1.64828        2.47112       -2.96282
H         -0.89744        5.02231       -3.37962
H          0.26185        5.85483       -1.14606
Fe        -1.32020       -2.09707       -0.99641
C         -0.87982       -3.80520        0.04475
C         -2.18862       -3.89214       -0.57731
C         -2.99513       -2.79397       -0.07420
C         -2.18373       -2.02948        0.85311
C         -0.88389       -2.65905        0.93442
H         -0.06194       -4.51731       -0.08617
H         -2.51744       -4.66244       -1.27887
H         -4.03557       -2.58483       -0.33401
H         -2.49410       -1.13656        1.39894
H         -0.07946       -2.34252        1.60047
