75
-122.81144331
P          1.83669       -0.54082        0.00107
C          1.68892       -1.50472       -1.51169
C          1.67790       -0.89770       -2.74668
C          1.65839       -1.66850       -3.89397
C          1.65252       -3.04570       -3.79665
C          1.66142       -3.65213       -2.55626
C          1.68183       -2.87723       -1.41043
H          1.70766       -3.33638       -0.43471
H          1.65363       -4.72692       -2.47958
H          1.63400       -3.64817       -4.69009
H          1.64404       -1.19408       -4.86138
H          1.67710        0.17763       -2.80837
C          3.15502       -1.33583        0.93340
C          4.45255       -1.22528        0.48760
C          5.47049       -1.87158        1.16536
C          5.17897       -2.63691        2.27692
C          3.87287       -2.76519        2.70568
C          2.85756       -2.11841        2.02511
H          1.83227       -2.21493        2.34528
H          3.64354       -3.36743        3.56937
H          5.97128       -3.13965        2.80717
H          6.48814       -1.78144        0.82249
H          4.66176       -0.65110       -0.40118
C          2.21223        1.17982       -0.38777
C          3.33573        1.85316        0.03270
C          3.49162        3.20532       -0.23977
C          2.47158        3.87613       -0.91374
C          1.32944        3.22061       -1.31647
C          1.19703        1.84691       -1.05876
O          0.03137        1.15023       -1.42208
C         -1.17972        1.80478       -1.14047
C         -1.34848        3.16887       -1.42658
C         -2.54699        3.77884       -1.12981
C         -3.58920        3.07295       -0.52986
C         -3.39369        1.73560       -0.21359
C         -2.20953        1.10879       -0.52412
P         -1.79780       -0.57357       -0.02448
C         -3.09036       -1.27090        1.01609
C         -2.81565       -1.72321        2.28621
C         -3.82500       -2.27573        3.05276
C         -5.10174       -2.38100        2.53789
C         -5.37014       -1.94022        1.25734
C         -4.35826       -1.38732        0.49316
H         -4.54801       -1.05571       -0.51586
H         -6.36462       -2.02880        0.85188
H         -5.88922       -2.81055        3.13542
H         -3.61441       -2.62149        4.05145
H         -1.81540       -1.63714        2.67844
C         -1.67648       -1.63270       -1.47056
C         -1.63764       -1.09158       -2.73498
C         -1.63427       -1.92316       -3.83948
C         -1.66829       -3.29294       -3.66852
C         -1.70176       -3.83216       -2.39767
C         -1.70826       -2.99711       -1.29471
H         -1.75225       -3.40172       -0.29571
H         -1.72513       -4.90114       -2.26409
H         -1.66154       -3.94254       -4.52848
H         -1.59941       -1.50195       -4.83069
H         -1.60129       -0.02102       -2.85145
Pd        -0.00171        0.10415        1.36597
Cl        -1.60614        1.09764        2.59259
Cl         1.56060        0.36485        2.95990
H         -4.16222        1.19291        0.30750
C         -4.85889        3.75664       -0.16722
H         -5.06670        4.58667       -0.84367
H         -4.80727        4.15299        0.84759
H         -5.70358        3.06829       -0.21740
H         -2.66985        4.82452       -1.35022
S          0.00497        4.06606       -2.14219
H          2.56597        4.92965       -1.10939
C          4.69477        3.93795        0.23682
H          4.08531        1.33521        0.60376
H          4.53725        4.32456        1.24444
H          5.56865        3.28550        0.25928
H          4.92687        4.78069       -0.41561
