171
-217.84711002
P         -1.58710        0.41536       -0.36530
P          1.60346       -0.34477       -0.23908
C         -0.81026        1.45294       -1.61269
C          0.98463       -1.22788       -1.67427
C          0.04136        0.90870       -2.56796
C          0.71110        1.77728       -3.45166
C          0.47640        3.13978       -3.37139
C         -0.39302        3.65731       -2.43515
C         -1.02863        2.80800       -1.55147
C          1.22106       -2.57769       -1.76158
C          0.72126       -3.30183       -2.82620
C         -0.03186       -2.66626       -3.79069
C         -0.28276       -1.30593       -3.72004
C          0.25172       -0.56245       -2.65003
Cl         1.39785        0.26521        3.02900
Cl        -1.76659       -0.29730        2.79768
C         -1.09546       -0.65438       -4.78375
C          1.66730        1.26230       -4.47024
H         -0.57150        4.71909       -2.38747
H         -1.70090        3.20640       -0.80956
H          1.80109       -3.06625       -0.99524
H          0.91784       -4.35877       -2.90134
H          0.98844        3.79839       -4.05259
H         -0.43493       -3.22913       -4.61571
C         -3.62377       -3.32996       -1.87186
C         -2.71171       -3.43674       -0.82872
C         -2.06813       -2.27986       -0.41128
C         -2.33599       -1.07620       -1.01406
C         -3.24073       -0.98551       -2.04291
C         -3.90800       -2.11912       -2.49228
H         -4.14619       -4.20747       -2.20304
H         -1.36417       -2.31353        0.40238
H         -3.43324       -0.01858       -2.47601
C         -4.70732        2.69148        2.01999
C         -3.37283        3.06415        2.13952
C         -2.43473        2.37854        1.37895
C         -2.81900        1.35136        0.55394
C         -4.13857        0.98704        0.46092
C         -5.11348        1.65302        1.18974
H         -5.44664        3.21690        2.59294
H         -1.39047        2.63314        1.44529
H         -4.41184        0.16465       -0.17660
C          4.28501       -2.99269        2.29297
C          2.91924       -3.24974        2.27669
C          2.11533       -2.45028        1.47350
C          2.66043       -1.41985        0.74749
C          4.00889       -1.16916        0.79299
C          4.85342       -1.95592        1.56275
H          4.91538       -3.61632        2.89838
H          1.05262       -2.61237        1.42494
H          4.40823       -0.34221        0.23296
C          3.92021        3.40409       -1.23734
C          2.85922        3.49147       -0.34484
C          2.15531        2.32890       -0.05908
C          2.49007        1.14761       -0.67185
C          3.52565        1.08150       -1.57113
C          4.27160        2.21632       -1.86703
H          4.50478        4.28444       -1.43054
H          1.34696        2.33165        0.65111
H          3.75304        0.13265       -2.02684
Pd        -0.06603       -0.02310        1.35197
C         -0.94866       -5.16053       -0.40285
C         -2.40780       -4.76440       -0.12053
C         -3.32800       -5.89840       -0.61149
C         -2.61865       -4.59345        1.39666
H         -0.68038       -6.07540        0.12517
H         -0.79843       -5.33003       -1.46842
H         -0.26175       -4.37535       -0.09102
H         -3.11560       -6.82561       -0.07933
H         -4.37629       -5.65225       -0.44302
H         -3.18357       -6.09015       -1.67452
H         -3.64272       -4.28791        1.60992
H         -2.42775       -5.52736        1.92495
H         -1.95380       -3.83691        1.81056
C         -6.34827       -2.41075       -2.95751
C         -4.98678       -2.05527       -3.58280
C         -4.65338       -3.05894       -4.70281
C         -5.08767       -0.64763       -4.20273
H         -6.34008       -3.41777       -2.54176
H         -6.59426       -1.71933       -2.15171
H         -7.14432       -2.36132       -3.70022
H         -5.38825       -3.00395       -5.50580
H         -3.67276       -2.85210       -5.12941
H         -4.64620       -4.08279       -4.33142
H         -5.37509        0.09174       -3.45563
H         -4.13902       -0.34230       -4.64247
H         -5.83980       -0.62559       -4.99124
C         -1.74512        3.70045        3.94535
C         -2.90807        4.19865        3.06356
C         -4.04128        4.67978        3.99036
C         -2.43745        5.38268        2.20169
H         -0.87608        3.42848        3.34839
H         -1.43186        4.47073        4.64970
H         -2.04503        2.82180        4.51593
H         -4.42835        3.85774        4.59226
H         -3.68175        5.45019        4.67241
H         -4.86408        5.10844        3.41879
H         -2.07764        6.20194        2.82387
H         -1.62905        5.08449        1.53624
H         -3.25335        5.75839        1.58452
C         -6.69293       -0.27335        1.46821
C         -6.57661        1.20717        1.05797
C         -7.02638        1.37419       -0.40543
C         -7.51068        2.03905        1.95713
H         -7.72618       -0.61486        1.40922
H         -6.09408       -0.91318        0.82095
H         -6.34675       -0.41678        2.49152
H         -6.42102        0.76626       -1.07664
H         -8.06662        1.07436       -0.53113
H         -6.93318        2.41323       -0.72069
H         -7.47562        3.09488        1.68928
H         -8.54365        1.70710        1.85327
H         -7.23599        1.93831        3.00697
C          2.86635       -5.72883        2.63262
C          2.34063       -4.37657        3.14450
C          0.80040       -4.39543        3.09797
C          2.77071       -4.16735        4.60899
H          2.46596       -6.55248        3.22346
H          2.57622       -5.88570        1.59373
H          3.95356       -5.77461        2.68686
H          0.40170       -5.17329        3.74894
H          0.38661       -3.44244        3.42764
H          0.44362       -4.59865        2.09003
H          2.43885       -3.19392        4.96977
H          2.33931       -4.93186        5.25489
H          3.85328       -4.21425        4.71834
C          7.12973       -2.60959        2.49704
C          6.35443       -1.63538        1.58997
C          6.55495       -0.20398        2.12290
C          6.92130       -1.73874        0.16171
H          6.77379       -2.55507        3.52566
H          7.02593       -3.63694        2.14838
H          8.19282       -2.36912        2.50304
H          6.06743        0.52982        1.48194
H          6.13461       -0.10412        3.12337
H          7.61373        0.04930        2.17350
H          6.76842       -2.73948       -0.24180
H          6.43578       -1.03071       -0.50860
H          7.99066       -1.52871        0.14974
C          2.34107        5.91691       -0.74764
C          2.52526        4.82945        0.32775
C          3.67680        5.21908        1.27063
C          1.22369        4.73659        1.14730
H          1.55922        5.63320       -1.45115
H          2.05917        6.86776       -0.29574
H          3.25761        6.07850       -1.31335
H          3.82515        4.45386        2.03240
H          4.61216        5.33133        0.72321
H          3.46705        6.16235        1.77462
H          0.96848        5.70314        1.58144
H          0.39266        4.42367        0.51610
H          1.32342        4.02529        1.96677
C          5.41111        3.28599       -3.84280
C          5.50091        2.16860       -2.78552
C          5.61042        0.81664       -3.51804
C          6.76486        2.36758       -1.92975
H          6.25696        3.24033       -4.52861
H          4.49808        3.19297       -4.42943
H          5.41415        4.27317       -3.38290
H          6.46432        0.81205       -4.19534
H          5.74826       -0.00363       -2.81424
H          4.71729        0.61709       -4.10927
H          6.84228        1.58983       -1.17016
H          7.66375        2.33040       -2.54485
H          6.74578        3.33043       -1.42004
H         -1.52009        0.28922       -4.43832
H          2.56342        1.88215       -4.50682
H         -1.92222       -1.29590       -5.08947
H         -0.48923       -0.44982       -5.66712
H          1.21816        1.26621       -5.46428
H          1.98223        0.24274       -4.24413
