115
-277.94076754
P         -1.86819       -0.62166       -0.08003
P          1.76384        0.57670       -0.18321
C         -1.97954       -2.40560        0.11379
C         -3.17990       -3.01325       -0.18764
H         -4.05527       -2.41052       -0.37458
C         -3.21792       -4.37822       -0.38820
H         -4.11578       -4.85128       -0.75181
C         -2.05983       -5.13170       -0.27384
C         -0.89402       -4.52511        0.16487
H          0.00015       -5.12441        0.24165
C         -0.85158       -3.15911        0.35643
H          0.07115       -2.68108        0.64029
C         -3.35834        0.12049        0.63005
C         -3.81204        1.31297        0.11476
H         -3.29295        1.77524       -0.70763
C         -4.93619        1.91070        0.64327
H         -5.29942        2.84881        0.25433
C         -5.61435        1.31925        1.69128
C         -5.15328        0.12392        2.20581
H         -5.68082       -0.31794        3.03647
C         -4.03099       -0.47672        1.67177
H         -3.66533       -1.40407        2.08274
C         -1.69304       -0.09879       -1.82075
C         -1.23042        1.20197       -1.90937
H         -0.94458        1.71837       -1.00807
C         -0.97064        1.79812       -3.14228
C         -1.39099        1.12675       -4.28439
H         -1.23739        1.58092       -5.24897
C         -1.84210       -0.17564       -4.20539
H         -2.03517       -0.72260       -5.11274
C         -1.88683       -0.85372       -2.98717
C          1.48924        0.08590       -1.91735
C          1.03542       -1.21718       -1.99365
H          0.82446       -1.75087       -1.08227
C          0.69766       -1.79619       -3.21631
C          1.04331       -1.10845       -4.37361
H          0.82901       -1.54980       -5.33254
C          1.49988        0.19269       -4.30532
H          1.63753        0.75195       -5.21524
C          1.61772        0.85431       -3.08319
C         -1.78839       -2.36447       -3.03671
H         -2.45570       -2.74408       -3.81875
H         -2.19440       -2.78358       -2.12009
C         -0.32604       -2.89761       -3.26826
H         -0.06471       -3.66717       -2.53388
H         -0.25420       -3.40868       -4.23489
C          0.05017        2.89943       -3.24763
H         -0.16353        3.66802       -2.49726
H         -0.07613        3.41390       -4.20687
C          1.52195        2.36451       -3.10433
H          2.14741        2.75836       -3.91362
H          1.97828        2.76986       -2.20480
C          2.04150        2.34473       -0.01683
C          3.27517        2.84320       -0.37935
C          0.98911        3.19549        0.24449
C          3.41510        4.19506       -0.62475
C          1.13552        4.54782        0.01435
C          2.32576        5.04387       -0.49255
C          3.25299       -0.25637        0.41163
C          4.06521       -0.87892       -0.50894
C          3.59656       -0.26163        1.74247
C          5.21591       -1.51852       -0.09429
H          3.79555       -0.86980       -1.55245
C          4.74554       -0.89735        2.15867
H          2.96233        0.23320        2.46078
C          5.56421       -1.52825        1.24154
H          5.85553       -2.02867       -0.79696
H          5.01776       -0.91956        3.20207
Pd        -0.04672        0.09942        1.23380
Cl        -1.44453       -0.69281        2.81336
Cl         1.22749        1.17576        2.74486
H          0.29597        5.21975        0.10552
H          0.03891        2.80384        0.56731
H          4.33383        4.58258       -1.03477
H          4.09194        2.16526       -0.57272
C         -3.29443       -7.25392       -0.90787
C         -1.94864       -6.47353       -0.95293
C         -1.47457       -6.17166       -2.41015
F         -3.71045       -7.27529        0.36701
F         -4.20323       -6.62948       -1.66960
F         -3.09169       -8.50494       -1.34963
F         -1.01581       -7.21941       -0.35614
F         -1.47812       -7.29809       -3.13546
F         -2.28281       -5.24883       -2.95084
F         -0.23683       -5.66683       -2.33003
C         -6.31970        3.19422        3.16947
C         -6.81168        1.99379        2.31092
C         -7.81415        2.42978        1.20159
F         -5.60664        4.02680        2.39681
F         -7.37638        3.82789        3.70013
F         -5.53891        2.69937        4.14186
F         -7.44882        1.14497        3.12210
F         -7.26569        3.40019        0.45732
F         -8.06204        1.35636        0.43621
F         -8.94811        2.86055        1.77536
C          7.59621       -1.46861        2.72733
C          6.78529       -2.29333        1.68465
C          6.32715       -3.67098        2.24263
F          6.88767       -1.35410        3.85931
F          8.76498       -2.08421        2.96405
F          7.81208       -0.25342        2.20165
F          7.58567       -2.52226        0.63981
F          5.45724       -3.47379        3.24423
F          5.72187       -4.32694        1.24102
F          7.39616       -4.35931        2.67033
C          3.68215        7.02790       -1.30732
C          2.27813        6.36253       -1.22395
C          1.67630        6.04376       -2.63013
F          4.18244        7.08093       -0.06400
F          4.48492        6.29025       -2.08670
F          3.55200        8.26684       -1.80679
F          1.45413        7.20814       -0.60056
F          1.70004        7.14185       -3.39717
F          2.37894        5.05002       -3.19169
F          0.41669        5.62923       -2.44091
