105
-153.07216962
Cl        -0.83277        2.02317       -2.86537
Pd         0.06899        1.54442       -0.85654
P          1.35771        0.72550        0.89448
N          0.66795       -0.52801        1.91133
C          0.04666       -1.74506        1.67210
C         -0.09630       -2.32326        0.38685
C         -0.84010       -3.51224        0.23938
C         -0.98136       -4.10870       -1.14182
C         -1.53130       -5.54357       -1.16678
C         -2.69327       -5.70589       -0.18255
C         -2.23919       -5.38423        1.24920
C         -1.41667       -4.12500        1.35378
C         -1.22046       -3.56793        2.61035
C         -0.50523       -2.40930        2.76717
H         -0.39009       -1.97673        3.74583
H         -1.65659       -4.05083        3.46848
H         -3.10893       -5.29519        1.91278
H         -3.50717       -5.02800       -0.46851
H         -1.84085       -5.82531       -2.18313
H         -1.63213       -3.45410       -1.73335
C          0.67971       -1.84038       -0.78093
C          0.01601       -1.22204       -1.87494
C          0.73842       -0.99751       -3.05005
C          2.04973       -1.38173       -3.15884
C          2.69882       -2.02961       -2.11510
C          4.10531       -2.52318       -2.32970
C          4.43714       -3.74435       -1.46112
C          4.11016       -3.45630        0.00710
C          2.63148       -3.07258        0.19903
C          2.01592       -2.26125       -0.91990
H          2.03518       -3.98451        0.32307
H          4.74894       -2.63860        0.35866
H          5.48988       -4.03796       -1.57991
H          4.80484       -1.70950       -2.10958
H          2.58741       -1.19855       -4.07363
H          0.25100       -0.49998       -3.86993
N         -1.32493       -0.82294       -1.81360
P         -1.85225        0.19123       -0.46772
C         -2.80120       -0.73490        0.73721
C         -3.57090       -1.78051        0.28769
C         -4.36459       -2.48174        1.17771
C         -4.38904       -2.13643        2.52210
C         -3.62799       -1.05619        2.94917
C         -2.83855       -0.35348        2.05709
H         -2.24849        0.48485        2.38684
H         -3.65534       -0.77040        3.98679
C         -5.24311       -2.88773        3.48261
H         -4.96811       -3.30369        0.83285
H         -3.54328       -2.04368       -0.75787
C         -2.98050        1.47461       -1.02559
C         -2.96851        2.70390       -0.40944
C         -3.83914        3.69137       -0.83273
C         -4.73533        3.44834       -1.86483
C         -4.73408        2.19864       -2.46994
C         -3.86175        1.21216       -2.04645
H         -3.86679        0.23803       -2.50831
H         -5.41822        2.00375       -3.27805
C         -5.65040        4.52189       -2.34186
H         -3.82406        4.66098       -0.36500
H         -2.27471        2.88993        0.39518
H         -1.66893       -0.35553       -2.64245
H          0.86586       -0.28189        2.87375
C          1.32085        2.22230        1.88868
C          0.11153        2.62730        2.40109
C          0.03283        3.79114        3.14426
C          1.16621        4.56041        3.37109
C          2.37956        4.13114        2.85007
C          2.45496        2.96759        2.10697
H          3.39308        2.64327        1.68753
H          3.26518        4.71739        3.02649
C          1.09080        5.80343        4.18772
H         -0.91199        4.10987        3.55029
H         -0.76710        2.03353        2.21031
C          3.08390        0.37601        0.56512
C          3.67324        0.73701       -0.62275
C          5.02290        0.51238       -0.81849
C          5.79613       -0.06020        0.18207
C          5.18682       -0.40578        1.38073
C          3.83405       -0.18541        1.57116
H          3.35830       -0.44459        2.50380
H          5.77645       -0.85392        2.16216
C          7.24124       -0.33931       -0.04266
H          5.48579        0.78764       -1.75079
H          3.08085        1.21565       -1.38428
Cl         1.68747        3.07244       -1.16658
H         -1.65072       -6.21951        1.64714
H         -0.73047       -6.24436       -0.89920
H         -3.11766       -6.71818       -0.24194
H         -0.00539       -4.07584       -1.64217
H          4.37153       -4.31801        0.63720
H          2.50622       -2.51850        1.13713
H          4.25056       -2.75723       -3.39204
H          3.84814       -4.60475       -1.80301
H         -4.78543       -2.92046        4.47238
H         -6.22303       -2.41838        3.57929
H         -5.39344       -3.91720        3.15431
H         -5.93455        5.18812       -1.52609
H         -5.17076        5.12264       -3.11575
H         -6.56620        4.10224       -2.76049
H          1.32677        5.59571        5.23230
H          1.79486        6.55404        3.82583
H          0.09235        6.24119        4.14876
H          7.38149       -1.33439       -0.46732
H          7.67985        0.38501       -0.73040
H          7.80189       -0.28984        0.89181
