87
-129.18315672
P         -1.54821       -0.25375       -0.41565
P          1.73125        0.28908        0.23622
C         -1.09886        1.01250       -1.60752
C          1.51743       -0.78630       -1.20455
C         -0.00210        0.78958       -2.43020
C          0.35393        1.77622       -3.37106
C         -0.41087        2.92826       -3.45851
C         -1.50045        3.12607       -2.63542
C         -1.84256        2.16245       -1.70716
C          2.13551       -2.00850       -1.07831
C          2.01356       -2.96099       -2.07153
C          1.25348       -2.68635       -3.18702
C          0.60395       -1.47197       -3.32712
C          0.74214       -0.49294       -2.32439
Cl         0.93728       -0.35055        3.38262
Cl        -1.66072       -1.91794        2.31799
H         -2.08059        4.03092       -2.71302
H         -2.69474        2.30395       -1.06352
H          2.71041       -2.21942       -0.18879
H          2.50188       -3.91611       -1.96861
H         -0.13837        3.68058       -4.17908
H          1.14421       -3.42880       -3.95932
C         -2.50251       -4.11360       -2.61320
C         -1.65964       -4.15472       -1.51099
C         -1.40025       -2.97153       -0.83071
C         -1.94536       -1.78481       -1.26131
C         -2.77446       -1.75037       -2.35787
C         -3.05872       -2.92185       -3.03507
H         -2.72100       -5.02687       -3.13991
C         -1.07119       -5.43790       -1.04085
H         -0.76788       -2.98285        0.04063
H         -3.18625       -0.80751       -2.68239
H         -3.70847       -2.90278       -3.89461
C         -5.15105        1.09744        2.02718
C         -5.23239       -0.04130        1.25087
C         -4.14143       -0.44597        0.50547
C         -2.98142        0.29196        0.53555
C         -2.89800        1.42542        1.31045
C         -3.98100        1.84286        2.07400
H         -5.99967        1.41477        2.60891
H         -6.14305       -0.61722        1.22938
H         -4.18718       -1.34041       -0.09396
H         -1.98571        1.99554        1.32167
C         -3.88717        3.07465        2.90383
C          6.07316       -0.11067        1.55223
C          5.76211        0.11409        0.22567
C          4.44001        0.22832       -0.16332
C          3.44073        0.11801        0.77609
C          3.75138       -0.10531        2.09580
C          5.07185       -0.23148        2.50536
H          7.10188       -0.19392        1.85913
H          6.54820        0.20174       -0.50633
H          4.18168        0.39691       -1.19699
H          2.95720       -0.18748        2.81585
C          5.40290       -0.45005        3.93995
C          0.86592        4.72537       -0.25460
C          1.74527        4.10156       -1.11733
C          2.01834        2.75477       -0.96835
C          1.40214        2.04314        0.03339
C          0.55564        2.67056        0.91885
C          0.26926        4.02362        0.78357
H          0.64078        5.77115       -0.37681
H          2.21085        4.66047       -1.91245
H          2.69693        2.25117       -1.63749
H          0.14577        2.11422        1.74454
C         -0.67915        4.69859        1.71000
Pd        -0.11992       -0.55096        1.41859
C          1.53261        1.60862       -4.26516
C         -0.23637       -1.23755       -4.53469
H          2.16871        0.78550       -3.93750
H          1.21780        1.40475       -5.28934
H          2.14379        2.51227       -4.27613
H          0.38352       -0.99880       -5.39966
H         -0.82326       -2.12451       -4.77748
H         -0.93596       -0.41515       -4.38218
H         -0.96171       -6.14682       -1.86275
H         -0.08283       -5.27897       -0.60686
H         -1.70307       -5.89736       -0.27959
H         -2.93997        3.10854        3.44389
H         -3.95547        3.96800        2.28158
H         -4.68929        3.11777        3.64185
H          4.59567       -0.97397        4.45392
H          6.30838       -1.04876        4.04842
H          5.56381        0.50110        4.44922
H         -0.73409        4.17681        2.66638
H         -0.36851        5.72487        1.91079
H         -1.68187        4.72801        1.28153
