105
-153.07238226
Cl        -0.88606        2.04710       -2.87705
Pd         0.09090        1.51572       -0.91889
P          1.34984        0.73388        0.86874
N          0.61665       -0.49333        1.88676
C          0.02636       -1.72816        1.65995
C         -0.09972       -2.32578        0.38191
C         -0.82009       -3.53035        0.24654
C         -0.94795       -4.14402       -1.12845
C         -1.47074       -5.58918       -1.13838
C         -2.63223       -5.76195       -0.15533
C         -2.18847       -5.41541        1.27387
C         -1.38945       -4.14017        1.36615
C         -1.20974       -3.56329        2.61620
C         -0.51837       -2.38872        2.76089
H         -0.41697       -1.94105        3.73429
H         -1.63979       -4.04368        3.47874
H         -3.06188       -5.33459        1.93373
H         -3.45787       -5.10279       -0.45124
H         -1.77210       -5.88830       -2.15222
H         -1.61004       -3.50825       -1.72791
C          0.66030       -1.83710       -0.79396
C         -0.02097       -1.22197       -1.87982
C          0.68481       -0.99534       -3.06503
C          1.99897       -1.36583       -3.18712
C          2.66644       -2.00495       -2.14943
C          4.07788       -2.47804       -2.37643
C          4.43172       -3.69987       -1.51740
C          4.11192       -3.42458       -0.04513
C          2.63013       -3.06036        0.15996
C          1.99801       -2.24689       -0.94808
H          2.04585       -3.98064        0.27945
H          4.74281       -2.60089        0.30628
H          5.48722       -3.97926       -1.64558
H          4.76738       -1.65583       -2.15575
H          2.52524       -1.17673       -4.10733
H          0.18406       -0.50150       -3.87908
N         -1.35889       -0.81625       -1.79390
P         -1.84081        0.19742       -0.42896
C         -2.80715       -0.73778        0.75637
C         -3.54480       -1.79902        0.29028
C         -4.34873       -2.51277        1.16080
C         -4.42506       -2.15648        2.50032
C         -3.68176       -1.07200        2.94764
C         -2.88232       -0.35679        2.07466
H         -2.31272        0.49000        2.41858
H         -3.72941       -0.79388        3.98663
C         -5.25083       -2.95182        3.45009
H         -4.91768       -3.35450        0.80509
H         -3.48061       -2.06677       -0.75241
C         -2.95302        1.50896       -0.95205
C         -2.89014        2.73755       -0.33760
C         -3.75004        3.74589       -0.73249
C         -4.68615        3.52449       -1.73374
C         -4.73576        2.27507       -2.33735
C         -3.87405        1.26766       -1.94247
H         -3.91786        0.29376       -2.40289
H         -5.45121        2.09698       -3.12190
C         -5.59063        4.61903       -2.18232
H         -3.69534        4.71490       -0.26655
H         -2.16501        2.90680        0.44272
H         -1.71736       -0.34471       -2.61437
H          0.80214       -0.23376        2.84806
C          1.29591        2.24999        1.83089
C          2.40641        3.04606        1.97983
C          2.31399        4.22573        2.69511
C          1.10655        4.61993        3.25651
C         -0.00241        3.79938        3.09949
C          0.09338        2.61945        2.38427
H         -0.76566        1.98325        2.24915
H         -0.94141        4.09069        3.53834
C          1.01183        5.88064        4.04340
H          3.18115        4.85200        2.81724
H          3.33808        2.74824        1.52737
C          3.08408        0.35614        0.62011
C          3.73551        0.71040       -0.53690
C          5.08909        0.46441       -0.66878
C          5.80465       -0.12179        0.36607
C          5.13334       -0.46021        1.53343
C          3.77667       -0.21852        1.65950
H          3.25308       -0.47194        2.56768
H          5.67749       -0.91938        2.34099
C          7.25461       -0.42094        0.20844
H          5.60090        0.73530       -1.57647
H          3.18893        1.20525       -1.32171
Cl         1.74462        2.99118       -1.28602
H         -1.58609       -6.23510        1.68325
H         -0.65764       -6.27165       -0.86069
H         -3.03738       -6.78265       -0.20419
H          0.02782       -4.09821       -1.62812
H          4.38881       -4.28649        0.57804
H          2.50361       -2.51671        1.10392
H          4.21934       -2.70374       -3.44108
H          3.85128       -4.56578       -1.86004
H         -6.09092       -3.42602        2.94076
H         -4.65427       -3.73664        3.91728
H         -5.65705       -2.32091        4.24191
H         -6.54662        4.22305       -2.52782
H         -5.79610        5.31829       -1.37061
H         -5.14139        5.17908       -3.00353
H          1.71543        6.62833        3.67469
H          0.01086        6.30976        3.98031
H          1.23453        5.69835        5.09560
H          7.76175       -0.43569        1.17414
H          7.39981       -1.39398       -0.26304
H          7.74565        0.33028       -0.41171
