105
-153.07211409
Cl        -0.75192        2.07420       -2.86606
Pd         0.07827        1.51976       -0.84982
P          1.35412        0.70910        0.91975
N          0.71194       -0.57676        1.92969
C          0.05983       -1.77597        1.68031
C         -0.10501       -2.33340        0.38835
C         -0.87717       -3.50306        0.23075
C         -1.03971       -4.07963       -1.15653
C         -1.62821       -5.49883       -1.19703
C         -2.78605       -5.64456       -0.20539
C         -2.31137       -5.35573        1.22658
C         -1.45904       -4.11747        1.34159
C         -1.23889       -3.58344        2.60421
C         -0.49603       -2.44375        2.77110
H         -0.36232       -2.02790        3.75463
H         -1.67830       -4.06875        3.45929
H         -3.17248       -5.25697        1.89996
H         -3.58392       -4.94118       -0.47447
H         -1.95356       -5.75743       -2.21459
H         -1.67506       -3.40087       -1.73749
C          0.68443       -1.85794       -0.77336
C          0.03451       -1.24409       -1.87790
C          0.77136       -1.02458       -3.04496
C          2.08362       -1.41011       -3.13628
C          2.71977       -2.05324       -2.08177
C          4.12811       -2.54945       -2.27721
C          4.44762       -3.76681       -1.39887
C          4.10614       -3.46988        0.06426
C          2.62701       -3.07932        0.23889
C          2.02279       -2.27804       -0.89349
H          2.02634       -3.98768        0.36808
H          4.74476       -2.65320        0.41880
H          5.50080       -4.06365       -1.50510
H          4.82610       -1.73588       -2.05213
H          2.63242       -1.23148       -4.04537
H          0.29398       -0.53136       -3.87334
N         -1.30714       -0.84384       -1.83564
P         -1.85151        0.18342       -0.50677
C         -2.78789       -0.71624        0.72591
C         -3.60110       -1.73984        0.30298
C         -4.38308       -2.41917        1.22002
C         -4.35225       -2.07412        2.56439
C         -3.54740       -1.01568        2.96495
C         -2.76891       -0.33530        2.04635
H         -2.13940        0.48134        2.35698
H         -3.53016       -0.73080        4.00303
C         -5.19190       -2.80391        3.55375
H         -5.02005       -3.22441        0.89648
H         -3.61655       -2.00351       -0.74279
C         -2.97615        1.45437       -1.09824
C         -2.98462        2.69214       -0.49931
C         -3.85264        3.66792       -0.95379
C         -4.71746        3.40902       -2.00835
C         -4.70850        2.14555       -2.58429
C         -3.83842        1.17095       -2.12971
H         -3.83318        0.18829       -2.57337
H         -5.38616        1.92959       -3.39249
C         -5.66314        4.45645       -2.48382
H         -3.86154        4.64037       -0.49183
H         -2.31006        2.89386        0.31749
H         -1.63597       -0.37681       -2.67091
H          0.92572       -0.34567        2.89245
C          1.31338        2.18579        1.94420
C          0.08817        2.65518        2.35358
C          0.01092        3.80340        3.12070
C          1.16241        4.49253        3.47619
C          2.39127        3.99836        3.05930
C          2.46507        2.85067        2.29182
H          3.41754        2.47685        1.95427
H          3.29077        4.52129        3.33598
C          1.08226        5.71766        4.31896
H         -0.94680        4.17309        3.44514
H         -0.80393        2.12643        2.06134
C          3.07414        0.39751        0.52357
C          3.60942        0.77480       -0.68486
C          4.95425        0.57631       -0.93469
C          5.77374        0.00054        0.02652
C          5.22206       -0.34687        1.25211
C          3.87413       -0.15266        1.49700
H          3.44141       -0.42102        2.44791
H          5.85349       -0.77398        2.01240
C          7.22438       -0.20595       -0.23719
H          5.37693        0.87415       -1.87905
H          2.97864        1.24310       -1.42191
Cl         1.62885        3.14779       -0.96916
H         -1.73855       -6.21030        1.60595
H         -0.84435       -6.22463       -0.94643
H         -3.23775       -6.64427       -0.27545
H         -0.06486       -4.06672       -1.66002
H          4.35721       -4.32952        0.70135
H          2.49661       -2.51422        1.16967
H          4.28599       -2.78855       -3.33662
H          3.85998       -4.62752       -1.74229
H         -5.36772       -3.83320        3.23775
H         -4.70795       -2.83695        4.53094
H         -6.16107       -2.31784        3.67336
H         -6.56437        4.47272       -1.86945
H         -5.20636        5.44612       -2.43889
H         -5.96324        4.27800       -3.51728
H          1.92110        6.38676        4.12229
H          0.16407        6.27214        4.11999
H          1.09770        5.46062        5.37898
H          7.80589        0.65233        0.10194
H          7.59570       -1.09127        0.28103
H          7.41560       -0.34271       -1.30251
