72
-98.09744212
Fe        -0.02953        2.83237        0.00828
P          1.78253       -0.02233       -0.06335
P         -1.86959       -0.03183        0.03870
C          1.38078        1.59169        0.70581
C          0.37888        1.80017        1.73444
C          0.30382        3.22640        1.99646
C          1.30588        3.89279        1.18429
C          1.98095        2.87974        0.39154
C         -1.42797        1.58138       -0.71364
C         -2.03205        2.86997       -0.41284
C         -1.34480        3.88098       -1.19833
C         -0.33608        3.21593       -2.00280
C         -0.39925        1.79448       -1.71610
C          2.99398       -0.88654        1.03658
C          4.29664       -0.13517        0.72016
C          2.96827        0.28521       -1.46468
C          4.34280        0.36435       -0.75626
C         -3.24245       -0.76613       -0.97243
C         -4.43873        0.07389       -0.49288
C         -2.88585        0.27465        1.56798
C         -4.31895        0.45947        1.01135
H         -0.22904        1.02228        2.19319
H         -0.36067        3.70859        2.71724
H          1.51847        4.96410        1.17486
H          2.78278        3.05430       -0.32858
H         -2.84652        3.04465        0.29296
H          0.22323        1.01865       -2.15909
Cl         1.45487       -3.05269       -0.68584
Cl        -1.59051       -3.05188        0.44257
Pd        -0.04018       -1.49510       -0.05498
H          3.06135       -1.92671        0.69718
C          2.56530       -0.83345        2.49695
H          2.69226        1.24787       -1.91171
C          2.93689       -0.80899       -2.52919
H          5.17009       -0.76480        0.94965
H          4.37084        0.72365        1.40308
H          4.73760        1.39030       -0.79863
H          5.06501       -0.23934       -1.32361
H         -1.56318        4.95119       -1.19860
H          0.33928        3.69668       -2.71405
H          2.47275        0.21710        2.80251
H          3.80242       -0.68486       -3.19494
H         -3.36165       -1.80826       -0.65381
C         -3.00341       -0.69938       -2.48057
H         -2.51480        1.19969        2.02496
C         -2.81038       -0.87590        2.57108
H         -5.38409       -0.45460       -0.69197
H         -4.48171        0.98625       -1.10590
H         -4.66402        1.49188        1.17035
H         -5.00697       -0.16205        1.60139
H         -3.97242       -0.74050       -2.99735
H         -3.05836       -1.80783        2.04669
C          3.51792       -1.57227        3.42441
H          3.18570       -1.53842        4.46450
H          3.60561       -2.62287        3.14127
H          4.52098       -1.14374        3.38685
C          1.66316       -0.83488       -3.35469
H          1.51126        0.10856       -3.88241
H          1.67580       -1.63089       -4.10273
H          0.79332       -1.00113       -2.72180
C         -2.10547       -1.81241       -2.99613
H         -1.14198       -1.81127       -2.49010
H         -2.55154       -2.79285       -2.81879
H         -1.91517       -1.72557       -4.06824
C         -1.47169       -1.01214        3.27604
H         -1.46184       -1.85265        3.97377
H         -0.66626       -1.17920        2.56245
H         -1.22834       -0.11378        3.84623
H          1.55422       -1.25094        2.58833
H          3.09054       -1.77759       -2.03631
H         -2.58605        0.28434       -2.73116
H         -3.60488       -0.74806        3.31958
