87
-129.18569900
P         -1.53514       -0.27261       -0.37518
P          1.68169        0.36746        0.08639
C         -1.18874        0.98279       -1.61229
C          1.53702       -0.70368       -1.36572
C         -0.13116        0.79618       -2.49331
C          0.13904        1.79441       -3.45092
C         -0.66485        2.92159       -3.49517
C         -1.71363        3.08383       -2.61460
C         -1.97243        2.10895       -1.67165
C          2.26393       -1.86990       -1.31733
C          2.15416       -2.80979       -2.32291
C          1.29459       -2.58308       -3.37478
C          0.54355       -1.42270       -3.44349
C          0.67593       -0.45119       -2.43222
Cl         1.16519        0.04246        3.26204
Cl        -1.51149       -1.65519        2.59659
H         -2.32607        3.96949       -2.65836
H         -2.79277        2.22508       -0.98328
H          2.91950       -2.05203       -0.48195
H          2.72712       -3.72142       -2.27703
H         -0.45558        3.68241       -4.22789
H          1.19102       -3.31931       -4.15381
C         -2.22944       -4.28957       -2.37514
C         -1.32442       -4.20207       -1.32614
C         -1.14692       -2.97201       -0.70495
C         -1.83481       -1.86427       -1.14230
C         -2.72304       -1.95593       -2.18788
C         -2.92577       -3.17670       -2.80460
H         -2.38413       -5.24074       -2.85530
C         -0.58035       -5.39993       -0.85134
H         -0.46053       -2.88298        0.12012
H         -3.24381       -1.07191       -2.52126
H         -3.62176       -3.25722       -3.62343
C         -5.11650        1.00641        2.13730
C         -5.18405       -0.15288        1.38983
C         -4.10260       -0.54334        0.62297
C         -2.96558        0.22949        0.60455
C         -2.89491        1.38199        1.35268
C         -3.96829        1.78631        2.13591
H         -5.95874        1.31338        2.73366
H         -6.07749       -0.75530        1.40668
H         -4.13760       -1.45148        0.04397
H         -1.99913        1.97834        1.32842
C         -3.88824        3.04423        2.92715
C          5.67303       -0.38109        2.14899
C          5.49395        0.75154        1.37977
C          4.27833        0.98118        0.76312
C          3.25264        0.07762        0.91730
C          3.43039       -1.05220        1.68219
C          4.64163       -1.29425        2.31855
H          6.61956       -0.56328        2.62875
H          6.30020        1.45662        1.26025
H          4.12403        1.86307        0.16325
H          2.61530       -1.74616        1.80611
C          4.82802       -2.52260        3.13787
C          0.96548        4.80261       -0.60027
C          1.82935        4.11613       -1.43122
C          2.06471        2.77000       -1.22206
C          1.43273        2.12455       -0.18576
C          0.59959        2.81386        0.66542
C          0.34609        4.16505        0.46595
H          0.76651        5.84647       -0.77341
H          2.30884        4.62505       -2.25123
H          2.72018        2.21365       -1.87303
H          0.16356        2.30578        1.50826
C         -0.60466        4.89350        1.34896
Pd        -0.06838       -0.38850        1.43874
C          1.27107        1.66780       -4.41020
C         -0.39595       -1.23709       -4.58464
H          1.85112        2.59090       -4.45060
H          1.95107        0.86495       -4.12326
H          0.90621        1.45751       -5.41631
H         -0.94665       -2.15679       -4.78712
H         -1.12903       -0.45697       -4.37710
H          0.14311       -0.96246       -5.49208
H         -0.43865       -6.12160       -1.65709
H          0.40668       -5.12421       -0.47681
H         -1.12035       -5.89610       -0.04380
H         -2.89999        3.16088        3.37450
H         -4.07686        3.91280        2.29458
H         -4.62014        3.05072        3.73597
H          3.92012       -2.76166        3.69367
H          5.07123       -3.37742        2.50525
H          5.63511       -2.39735        3.86098
H         -0.35211        5.95282        1.41216
H         -1.62411        4.81167        0.96903
H         -0.58914        4.48793        2.36162
