171
-217.84458466
P         -1.59789        0.38583       -0.44364
P          1.61290       -0.31631       -0.27684
C         -0.83554        1.42515       -1.69547
C          1.02123       -1.22560       -1.70528
C          0.04702        0.88781       -2.62599
C          0.71821        1.76082       -3.50435
C          0.45289        3.11872       -3.44485
C         -0.45046        3.62789       -2.53644
C         -1.08632        2.77541       -1.65590
C          1.28840       -2.57019       -1.78405
C          0.81365       -3.31007       -2.84926
C          0.05600       -2.69532       -3.82363
C         -0.22397       -1.34001       -3.76157
C          0.28411       -0.58048       -2.69081
Cl         1.43267        0.34277        2.92350
Cl        -1.74350       -0.37373        2.75869
C         -1.02654       -0.69945       -4.83900
C          1.72366        1.26107       -4.48239
H         -0.65243        4.68610       -2.50533
H         -1.78188        3.16734       -0.93195
H          1.87402       -3.04217       -1.01163
H          1.03323       -4.36304       -2.91699
H          0.96931        3.78068       -4.11951
H         -0.32441       -3.27062       -4.65075
C         -3.67293       -3.38386       -1.83970
C         -2.70242       -3.47386       -0.84895
C         -2.04568       -2.30825       -0.47786
C         -2.36247       -1.10967       -1.06745
C         -3.32767       -1.03612       -2.04187
C         -4.01261       -2.17737       -2.44198
H         -4.18550       -4.27631       -2.14200
H         -1.28782       -2.33016        0.28616
H         -3.56234       -0.07774       -2.47445
C         -4.59488        2.63024        2.12837
C         -3.26258        3.02610        2.15088
C         -2.37068        2.35515        1.32484
C         -2.79470        1.32021        0.52860
C         -4.11242        0.93606        0.52862
C         -5.04182        1.58204        1.33244
H         -5.29958        3.14493        2.75231
H         -1.32869        2.62704        1.31878
H         -4.41718        0.11421       -0.09483
C          4.19134       -2.90114        2.42296
C          2.83538       -3.18755        2.31788
C          2.07355       -2.41229        1.45397
C          2.64349       -1.37783        0.75344
C          3.98222       -1.10180        0.87974
C          4.78841       -1.86812        1.71136
H          4.80272       -3.48430        3.08553
H          1.01796       -2.59848        1.34998
H          4.39108       -0.26888        0.33703
C          3.94642        3.40483       -1.34468
C          2.86426        3.51839       -0.48133
C          2.15755        2.36342       -0.17132
C          2.51426        1.16194       -0.73022
C          3.57409        1.06872       -1.59879
C          4.32050        2.19686       -1.91973
H          4.52769        4.28211       -1.56082
H          1.32779        2.38833        0.51341
H          3.81727        0.10520       -2.01364
Pd        -0.08129        0.01144        1.29898
C         -2.29891       -4.61195        1.35941
C         -2.33553       -4.80178       -0.17061
C         -0.95364       -5.24901       -0.67228
C         -3.36038       -5.90757       -0.49038
H         -2.08201       -5.55332        1.86395
H         -1.53470       -3.89648        1.65794
H         -3.25849       -4.24662        1.72445
H         -0.64254       -6.17737       -0.19363
H         -0.97170       -5.41337       -1.74935
H         -0.20168       -4.48961       -0.46387
H         -3.36704       -6.14549       -1.55373
H         -3.11887       -6.82482        0.04664
H         -4.36536       -5.60483       -0.19660
C         -5.84010       -3.41821       -3.71330
C         -5.13830       -2.06564       -3.48212
C         -4.55489       -1.58509       -4.82126
C         -6.18901       -1.05509       -2.98539
H         -5.14334       -4.16192       -4.09951
H         -6.27560       -3.79694       -2.78874
H         -6.64627       -3.31584       -4.43970
H         -5.33598       -1.49042       -5.57546
H         -4.07464       -0.61317       -4.71533
H         -3.81446       -2.29313       -5.19197
H         -6.58637       -1.35812       -2.01684
H         -5.75936       -0.06005       -2.87831
H         -7.02215       -0.98248       -3.68424
C         -2.35155        5.35504        2.15897
C         -2.75094        4.16358        3.04593
C         -1.52789        3.67492        3.84810
C         -3.82572        4.63008        4.04692
H         -3.21188        5.72672        1.60269
H         -1.95512        6.17455        2.75815
H         -1.59033        5.06610        1.43646
H         -0.69894        3.40845        3.19458
H         -1.17402        4.44788        4.52989
H         -1.78238        2.79428        4.43743
H         -3.43078        5.40404        4.70495
H         -4.68982        5.04930        3.53208
H         -4.16205        3.80291        4.67184
C         -7.11191        1.46978       -0.06707
C         -6.50798        1.12656        1.30546
C         -7.34157        1.82018        2.40026
C         -6.57852       -0.39593        1.53804
H         -8.15056        1.14579       -0.13057
H         -7.08043        2.54467       -0.24424
H         -6.55816        0.98453       -0.86912
H         -7.37793        2.89821        2.24517
H         -8.36838        1.45460        2.39389
H         -6.92635        1.62587        3.38905
H         -6.10441       -0.66229        2.48243
H         -7.61290       -0.73755        1.57087
H         -6.07544       -0.94671        0.74442
C          3.14167       -4.99498        4.08613
C          2.14908       -4.28023        3.14956
C          1.52923       -5.32428        2.20516
C          1.04363       -3.63608        4.00888
H          2.63568       -5.76191        4.67247
H          3.93423       -5.48317        3.51932
H          3.59650       -4.29278        4.78455
H          1.04320       -6.12162        2.76715
H          0.78189       -4.86896        1.55899
H          2.29278       -5.77299        1.57004
H          0.28606       -3.15757        3.38967
H          0.54540       -4.38131        4.62845
H          1.46279       -2.87411        4.66552
C          7.09497       -2.84230        1.53222
C          6.28634       -1.58016        1.88512
C          6.55652       -1.17933        3.34652
C          6.75345       -0.43259        0.96770
H          6.84505       -3.67215        2.19207
H          6.89148       -3.15529        0.50827
H          8.16526       -2.65717        1.62203
H          5.97420       -0.29861        3.61676
H          6.28662       -1.98137        4.03256
H          7.61052       -0.94835        3.49989
H          6.57379       -0.67270       -0.08008
H          6.23450        0.49608        1.20462
H          7.82157       -0.25148        1.08692
C          2.32199        5.91668       -0.99558
C          2.50802        4.88028        0.12873
C          3.64520        5.32557        1.06467
C          1.20048        4.80739        0.93960
H          1.54979        5.59324       -1.69257
H          2.02583        6.88354       -0.58905
H          3.24193        6.06265       -1.56006
H          3.79618        4.59566        1.85985
H          4.58441        5.42757        0.52193
H          3.41790        6.28647        1.52595
H          0.93375        5.78750        1.33466
H          0.37767        4.46379        0.31357
H          1.29999        4.12817        1.78580
C          5.46013        3.17852       -3.94141
C          5.56468        2.12958       -2.81735
C          5.72266        0.73912       -3.46330
C          6.81131        2.41853       -1.96170
H          6.32482        3.12568       -4.60278
H          4.56782        3.01668       -4.54429
H          5.41384        4.19013       -3.54063
H          6.59028        0.71532       -4.12252
H          5.86534       -0.03248       -2.70711
H          4.84709        0.48121       -4.05851
H          6.90124        1.69286       -1.15413
H          7.71871        2.36870       -2.56329
H          6.75944        3.41054       -1.51406
H         -1.69116       -1.42066       -5.31502
H          2.65650        1.81693       -4.38961
H         -0.38038       -0.28548       -5.61375
H         -1.64041        0.11068       -4.44263
H          1.36541        1.37798       -5.50616
H          1.95387        0.20721       -4.32145
