87
-129.18296082
P         -1.72067       -0.30297        0.04806
P          1.54554        0.31256       -0.25458
C         -1.41687        1.02769       -1.14294
C          1.20506       -0.68946       -1.70578
C         -0.57684        0.94860       -2.25155
C         -0.38113        2.10178       -3.03602
C         -1.04025        3.27231       -2.70183
C         -1.86572        3.33343       -1.60084
C         -2.04418        2.20823       -0.81948
C          1.96049       -1.80495       -1.97107
C          1.70001       -2.56129       -3.09683
C          0.67898       -2.19287       -3.94876
C         -0.09693       -1.07303       -3.69613
C          0.17821       -0.29536       -2.55367
Cl         1.50130        1.33302        2.84459
Cl        -1.19923       -0.37778        3.28116
H         -2.36171        4.25504       -1.34405
H         -2.67208        2.24844        0.05830
H          2.75763       -2.08106       -1.30117
H          2.28930       -3.43907       -3.30555
H         -0.88675        4.14900       -3.30804
H          0.46886       -2.78527       -4.82306
C         -0.78544       -4.57993       -1.17555
C         -0.29957       -4.09094        0.02903
C         -0.60459       -2.78243        0.38393
C         -1.36099       -1.99066       -0.44968
C         -1.87195       -2.49648       -1.62124
C         -1.57782       -3.79561       -1.99022
H         -0.54454       -5.58828       -1.46623
C          0.54867       -4.94248        0.90571
H         -0.28699       -2.39450        1.33697
H         -2.48513       -1.86911       -2.24756
H         -1.95900       -4.19138       -2.91727
C         -6.16316       -0.12921        1.04325
C         -5.73709       -0.08893       -0.26969
C         -4.38586       -0.14351       -0.55860
C         -3.47202       -0.23287        0.46624
C         -3.89745       -0.27479        1.77212
C         -5.24968       -0.23050        2.08296
H         -7.21428       -0.08059        1.27165
H         -6.45591       -0.01250       -1.06899
H         -4.03793       -0.10551       -1.57900
H         -3.16920       -0.33925        2.56030
C         -5.70193       -0.24728        3.50090
C          4.98618       -1.51197        2.11484
C          5.11537       -0.24930        1.57197
C          4.07359        0.29876        0.84829
C          2.91495       -0.41941        0.66644
C          2.78415       -1.67700        1.20808
C          3.81669       -2.24070        1.94726
H          5.79618       -1.94113        2.67962
H          6.02462        0.31098        1.71617
H          4.15653        1.28886        0.43090
H          1.87412       -2.22969        1.05412
C          3.67240       -3.60420        2.52571
C          2.64613        4.52024       -1.56834
C          3.20740        3.42858       -2.20140
C          2.88097        2.14977       -1.78944
C          1.99978        1.97661       -0.74803
C          1.45010        3.06136       -0.10602
C          1.76638        4.35319       -0.50761
H          2.88819        5.51682       -1.89617
H          3.89177        3.57185       -3.02144
H          3.29687        1.28473       -2.28197
H          0.76948        2.90770        0.71393
C          1.13443        5.52441        0.15779
Pd         0.01783        0.29035        1.52359
C          0.53177        2.09913       -4.21332
C         -1.20484       -0.72343       -4.62732
H         -0.03399        2.04657       -5.14423
H          1.13491        3.00778       -4.23882
H          1.21844        1.25253       -4.18601
H         -1.81390       -1.60001       -4.85293
H         -1.86350        0.03284       -4.19867
H         -0.81380       -0.33609       -5.56896
H          0.53702       -4.58283        1.93547
H          0.19396       -5.97409        0.91197
H          1.58269       -4.94414        0.55840
H         -4.99908       -0.79470        4.13066
H         -5.78413        0.76739        3.89285
H         -6.67692       -0.72695        3.59792
H          3.78499       -4.36710        1.75421
H          4.42412       -3.79063        3.29389
H          2.69187       -3.72917        2.98707
H          1.76935        6.40870        0.08784
H          0.17479        5.75999       -0.30454
H          0.95830        5.32541        1.21593
