58
-89.86884966
P          1.57935        0.28258        0.94457
C          2.94648        1.40812        0.65130
C          2.75672        2.75939        0.82849
C          3.80069        3.63587        0.59098
C          5.02599        3.15097        0.17762
C          5.21051        1.79386        0.00032
C          4.16486        0.92014        0.23785
H          4.29080       -0.14116        0.09665
H          1.79115        3.12363        1.14270
C          1.96961       -1.36968        0.34856
C          2.00884       -1.56740       -1.01328
C          2.27906       -2.82314       -1.52374
C          2.51540       -3.87553       -0.66226
C          2.49351       -3.67086        0.70328
C          2.22461       -2.41228        1.21002
H          2.22957       -2.24091        2.27365
H          1.83023       -0.72972       -1.66911
C          1.17508        0.32721        2.73424
C          0.02451       -0.58014        3.13133
C         -1.33692       -0.08908        2.67240
P         -1.62764       -0.21138        0.86183
C         -3.27654        0.42176        0.53831
C         -4.24849       -0.41025        0.03165
C         -5.51309        0.08688       -0.22661
C         -5.79351        1.41572        0.02375
C         -4.81422        2.24724        0.53056
C         -3.55027        1.74680        0.78848
H         -2.77196        2.38643        1.17420
H         -4.01239       -1.44345       -0.16522
C         -1.45212       -1.88496        0.22489
C         -1.37100       -2.97792        1.05726
C         -1.20909       -4.24077        0.51690
C         -1.13950       -4.40233       -0.85286
C         -1.24066       -3.30584       -1.68545
C         -1.40012       -2.04501       -1.14159
H         -1.48755       -1.17525       -1.77392
H         -1.45057       -2.84804        2.12369
Pd        -0.11576        0.91100       -0.49866
Cl         1.37602        1.64506       -2.01175
Cl        -1.80591        1.32944       -1.92394
H         -2.14400       -0.65672        3.14211
H         -1.48341        0.95539        2.95346
H          0.20155       -1.58751        2.73680
H          0.01657       -0.69633        4.22644
H          2.09621        0.05661        3.25621
H          0.95801        1.36454        2.99539
H          3.65525        4.69529        0.72408
H          6.16528        1.41572       -0.32629
H          2.30067       -2.97887       -2.58974
H          2.68565       -4.49144        1.37488
H         -6.27577       -0.56114       -0.62617
H         -5.03145        3.28548        0.72052
H         -1.13693       -5.09829        1.16557
H         -1.19136       -3.42978       -2.75469
H          5.83883        3.83338       -0.01031
H          2.72081       -4.85749       -1.05622
H         -6.77747        1.80552       -0.18021
H         -1.00925       -5.38638       -1.27276
