87
-129.18602349
P         -1.69420       -0.36784       -0.10789
P          1.56309        0.33022       -0.19442
C         -1.44382        0.96741       -1.30458
C          1.31033       -0.65634       -1.67439
C         -0.50027        0.92470       -2.32963
C         -0.29706        2.07627       -3.11480
C         -1.05936        3.20624       -2.87553
C         -1.99937        3.22699       -1.86923
C         -2.18023        2.10713       -1.08193
C          2.10353       -1.75508       -1.89711
C          1.92012       -2.52369       -3.02943
C          0.93713       -2.18320       -3.93465
C          0.12452       -1.08065       -3.72776
C          0.31770       -0.29245       -2.57543
Cl         1.34161        1.10967        2.93137
Cl        -1.40720       -0.62569        3.10685
H         -2.58091        4.11602       -1.68788
H         -2.89990        2.12543       -0.28032
H          2.87291       -2.01031       -1.18771
H          2.54004       -3.38816       -3.20202
H         -0.90138        4.08130       -3.48297
H          0.78689       -2.78326       -4.81605
C         -0.86754       -4.58923       -1.57405
C         -0.34346       -4.17051       -0.35874
C         -0.62860       -2.88191        0.07499
C         -1.39978       -2.03937       -0.69261
C         -1.93912       -2.47178       -1.88089
C         -1.67083       -3.75322       -2.32487
H         -0.64255       -5.58103       -1.92748
C          0.54128       -5.05922        0.44231
H         -0.26778       -2.54642        1.03205
H         -2.54821       -1.79899       -2.46331
H         -2.07713       -4.09364       -3.26318
C         -5.84226       -0.03837        1.74435
C         -5.58716       -0.99864        0.78550
C         -4.32602       -1.09892        0.22849
C         -3.32950       -0.24210        0.63483
C         -3.58318        0.71666        1.58855
C         -4.84616        0.83645        2.15535
H         -6.82107        0.03554        2.18680
H         -6.36883       -1.67188        0.47369
H         -4.11226       -1.84711       -0.51709
H         -2.78850        1.36673        1.91594
C         -5.10125        1.84915        3.21553
C          4.95844       -1.46399        2.25997
C          5.08205       -0.18544        1.75290
C          4.05683        0.36225        1.00528
C          2.91986       -0.37280        0.76579
C          2.79320       -1.64490        1.27419
C          3.80929       -2.20926        2.03464
H          5.75707       -1.89322        2.84064
H          5.97542        0.38686        1.94219
H          4.13553        1.36290        0.61326
H          1.89884       -2.21035        1.07681
C          3.67047       -3.59312        2.56419
C          2.39609        4.64608       -1.33370
C          3.12368        3.62666       -1.91598
C          2.88113        2.31384       -1.55620
C          1.91789        2.03588       -0.61512
C          1.19780        3.04874       -0.02601
C          1.42846        4.37342       -0.37649
H          2.57335        5.66806       -1.62250
H          3.87281        3.85225       -2.65714
H          3.42575        1.50295       -2.01408
H          0.44363        2.81191        0.70532
C          0.61654        5.46569        0.22485
Pd        -0.05295        0.11620        1.48163
C          0.72800        2.11205       -4.19522
C         -0.93517       -0.75827       -4.72318
H          1.44894        1.30068       -4.09033
H          0.26169        2.02578       -5.17733
H          1.28555        3.04939       -4.16998
H         -1.64260       -0.02635       -4.33182
H         -0.49953       -0.35148       -5.63659
H         -1.50119       -1.65156       -4.99125
H          0.44769       -4.84864        1.50867
H          0.28924       -6.10936        0.28847
H          1.58606       -4.91830        0.16150
H         -6.16281        2.09020        3.28635
H         -4.77332        1.47967        4.18813
H         -4.56336        2.77563        3.00919
H          2.65582       -3.77311        2.92259
H          3.89003       -4.32871        1.78905
H          4.35166       -3.76849        3.39794
H          1.18970        6.39140        0.29258
H         -0.27263        5.66180       -0.37605
H          0.29038        5.20312        1.23228
