59
-75.80639778
Cl         1.67031        0.59062        2.30237
P          1.62213       -0.11878       -0.85649
P         -1.59048       -0.17826       -0.76293
C          0.59049        0.16274       -2.36195
H          0.32662        1.22164       -2.41667
H          1.18949       -0.07240       -3.24736
C         -0.64299       -0.68831       -2.26099
H         -0.37851       -1.74413       -2.15773
H         -1.29274       -0.59102       -3.13646
C          2.64481       -1.64375       -1.14736
H          2.49927       -1.86072       -2.21437
C          2.98999        1.12051       -0.66431
H          3.07487        1.30850        0.41288
C         -3.02105       -1.29608       -0.41374
H         -3.23680       -1.18649        0.65637
C         -2.53886        1.37143       -1.13619
H         -2.16667        1.73759       -2.10056
C          4.09050       -1.16775       -0.92203
H          4.39544       -1.39717        0.10609
H          4.78365       -1.73200       -1.56416
C          4.22896        0.35823       -1.16442
H          4.35261        0.55033       -2.23916
H          5.13938        0.75227       -0.68743
C         -4.13846       -0.64730       -1.24739
H         -4.07396       -1.02585       -2.27743
H         -5.12630       -0.96267       -0.87698
C         -4.00784        0.90172       -1.24707
H         -4.57050        1.30584       -0.39477
H         -4.48384        1.33358       -2.13979
C          2.22010       -2.85542       -0.31854
H          2.80293       -3.72906       -0.64213
H          1.18019       -3.10013       -0.56924
C          2.73228        2.43217       -1.39681
H          3.65684        3.02619       -1.40226
H          2.52439        2.21550       -2.45256
C         -2.73585       -2.75604       -0.73838
H         -3.67551       -3.32494       -0.70645
H         -2.39021       -2.82992       -1.77736
C         -2.31501        2.41305       -0.04583
H         -2.71254        2.02203        0.90059
H         -1.23871        2.53178        0.13081
C          2.35996       -2.68712        1.18784
H          1.93877       -3.53532        1.73269
H          1.85030       -1.79180        1.54068
H          3.40340       -2.60016        1.49348
C          1.60165        3.24186       -0.78380
H          1.42650        4.17746       -1.31973
H          1.81424        3.49220        0.25729
H          0.66834        2.68044       -0.79131
C         -1.72025       -3.37111        0.21150
H         -0.79763       -2.79083        0.22623
H         -1.46531       -4.39730       -0.06249
H         -2.09713       -3.38644        1.23599
C         -2.94052        3.76161       -0.36978
H         -4.01973        3.67733       -0.50852
H         -2.76798        4.49359        0.42251
H         -2.52916        4.17391       -1.29314
Cl        -1.59881        0.04042        2.36960
Pd         0.05384        0.04141        0.85151
