171
-217.84485005
P         -1.63046        0.34410       -0.50277
P          1.64730       -0.35044       -0.19787
C         -0.82142        1.31929       -1.77196
C          1.07630       -1.32711       -1.59258
C          0.08596        0.72427       -2.64116
C          0.76428        1.53695       -3.57009
C          0.47987        2.89139       -3.61980
C         -0.44919        3.45488       -2.77098
C         -1.09198        2.66391       -1.83895
C          1.34787       -2.67405       -1.59522
C          0.86569       -3.47996       -2.60712
C          0.09407       -2.92813       -3.60716
C         -0.19157       -1.57284       -3.62295
C          0.32660       -0.74541       -2.60865
Cl         1.26479        0.16594        2.98942
Cl        -1.86987       -0.47731        2.65824
C         -1.02183       -1.01109       -4.72261
C          1.77370        0.96861       -4.50546
H         -0.66910        4.50832       -2.83019
H         -1.81098        3.09654       -1.16200
H          1.94298       -3.09951       -0.80390
H          1.08689       -4.53481       -2.61010
H          0.99668        3.50672       -4.33691
H         -0.29560       -3.55360       -4.39256
C         -3.77835       -3.29084       -2.11834
C         -2.78704       -3.46457       -1.16033
C         -2.14006       -2.33234       -0.68188
C         -2.46693       -1.09072       -1.16612
C         -3.44058       -0.93545       -2.12201
C         -4.12713       -2.03925       -2.61335
H         -4.29779       -4.16007       -2.47503
H         -1.37691       -2.40759        0.07337
H         -3.67379        0.05540       -2.47514
C         -4.42444        2.74846        2.14425
C         -3.07993        3.09523        2.09475
C         -2.25755        2.37969        1.23478
C         -2.76082        1.35106        0.47628
C         -4.09063        1.01581        0.54592
C         -4.95404        1.71714        1.37878
H         -5.07915        3.27675        2.81137
H         -1.20453        2.60120        1.18556
H         -4.44348        0.18191       -0.03401
C          4.32471       -2.77724        2.54662
C          2.99327       -3.15119        2.40750
C          2.20028       -2.41440        1.53828
C          2.71628       -1.33669        0.86269
C          4.02980       -0.97242        1.02383
C          4.86634       -1.69426        1.86524
H          4.96076       -3.33314        3.20936
H          1.16327       -2.67100        1.40091
H          4.39467       -0.11003        0.49561
C          3.86615        3.44794       -1.23736
C          2.79921        3.51826       -0.34961
C          2.10410        2.34660       -0.07999
C          2.48215        1.16283       -0.66298
C          3.54406        1.10751       -1.53187
C          4.26104        2.25860       -1.83761
H          4.42030        4.33962       -1.46161
H          1.26731        2.35000        0.59692
H          3.81408        0.15508       -1.95570
Pd        -0.15366       -0.07965        1.26090
C         -1.26647       -4.84849        0.33459
C         -2.46392       -4.86986       -0.63494
C         -2.11425       -5.79435       -1.81617
C         -3.69071       -5.42205        0.11223
H         -1.02732       -5.85532        0.67653
H         -0.38054       -4.44315       -0.15276
H         -1.48354       -4.24521        1.21579
H         -1.27461       -5.39368       -2.38268
H         -1.84002       -6.78887       -1.46471
H         -2.95558       -5.90458       -2.49903
H         -3.49022       -6.41627        0.51114
H         -3.95852       -4.77124        0.94444
H         -4.55473       -5.49354       -0.54760
C         -5.90727       -3.17904       -4.03611
C         -5.25916       -1.84015       -3.63340
C         -4.70394       -1.16967       -4.90258
C         -6.34441       -0.94256       -3.01201
H         -5.17692       -3.84672       -4.49290
H         -6.34283       -3.68009       -3.17179
H         -6.70573       -3.01920       -4.76064
H         -4.23554       -0.21311       -4.67408
H         -3.96068       -1.80659       -5.37997
H         -5.49906       -0.98679       -5.62523
H         -6.73565       -1.39032       -2.09877
H         -5.94717        0.04092       -2.76388
H         -7.17658       -0.80091       -3.70138
C         -1.81145        5.25812        2.11974
C         -2.46689        4.17640        2.99554
C         -1.40469        3.52584        3.90275
C         -3.52774        4.84813        3.88815
H         -2.54499        5.71430        1.45527
H         -1.37234        6.04544        2.73223
H         -1.02068        4.83512        1.50424
H         -0.61047        3.06484        3.31731
H         -0.94862        4.26315        4.56294
H         -1.85213        2.74763        4.52055
H         -4.30053        5.32643        3.28663
H         -4.00174        4.12213        4.54843
H         -3.07475        5.61616        4.51500
C         -6.84106        0.23611        0.53177
C         -6.43681        1.34543        1.52134
C         -7.30825        2.58401        1.24045
C         -6.69195        0.84188        2.95335
H         -6.27886       -0.67968        0.71350
H         -7.89982       -0.00368        0.62905
H         -6.66648        0.55351       -0.49543
H         -8.36789        2.33737        1.30530
H         -7.10980        3.38173        1.95502
H         -7.11303        2.97269        0.24114
H         -6.46328        1.61218        3.68901
H         -7.73383        0.55082        3.08575
H         -6.06766       -0.02424        3.17224
C          3.34306       -4.89331        4.23009
C          2.37885       -4.33618        3.16521
C          2.05066       -5.45430        2.16108
C          1.08887       -3.87798        3.87513
H          2.87586       -5.70497        4.78770
H          4.24918       -5.29020        3.77301
H          3.62520       -4.11951        4.94388
H          1.59206       -6.30759        2.66041
H          1.36156       -5.10131        1.39568
H          2.95461       -5.79992        1.65989
H          0.65953       -4.68742        4.46506
H          1.29493       -3.04337        4.54484
H          0.33215       -3.55327        3.16254
C          7.23471       -2.51294        1.71716
C          6.33865       -1.31210        2.07297
C          6.55461       -0.91843        3.54522
C          6.74679       -0.12199        1.18176
H          8.28872       -2.25980        1.83041
H          7.02779       -3.36784        2.35968
H          7.07092       -2.82217        0.68498
H          7.58847       -0.62299        3.72309
H          5.91174       -0.08137        3.81693
H          6.32388       -1.74721        4.21358
H          7.79774        0.12789        1.32645
H          6.60529       -0.35786        0.12719
H          6.16213        0.76654        1.41955
C          1.07498        5.32302       -0.38019
C          2.36109        4.83610        0.30527
C          3.44192        5.92629        0.16703
C          2.09862        4.61315        1.80831
H          0.70815        6.24159        0.07741
H          1.25424        5.51920       -1.43703
H          0.29147        4.57008       -0.31042
H          3.14620        6.83256        0.69551
H          4.39016        5.59027        0.58641
H          3.60123        6.19650       -0.87646
H          1.83271        5.54849        2.30049
H          1.28191        3.91314        1.97386
H          2.98609        4.21401        2.29883
C          5.71741        0.84766       -3.37597
C          5.49427        2.23938       -2.75243
C          6.73815        2.60759       -1.92288
C          5.31468        3.26200       -3.89062
H          5.89987        0.09722       -2.60704
H          4.85417        0.53672       -3.96344
H          6.58280        0.85512       -4.03850
H          7.63746        2.58994       -2.53827
H          6.64537        3.60496       -1.49436
H          6.87652        1.90395       -1.10266
H          5.22253        4.27609       -3.50408
H          6.16809        3.24303       -4.56826
H          4.41985        3.04436       -4.47185
H         -1.74104       -1.74828       -5.08031
H          1.37443        0.90376       -5.51850
H         -0.40126       -0.71405       -5.56876
H         -1.58071       -0.13599       -4.38794
H          2.08586       -0.03075       -4.19949
H          2.66501        1.59501       -4.53823
