115
-277.94134305
P         -1.75508       -0.67228       -0.12522
P          1.89256        0.47941       -0.06996
C         -2.16635       -2.40615        0.11331
C         -1.17744       -3.31230        0.43051
H         -0.20720       -2.96948        0.74971
C         -1.40801       -4.66060        0.25205
H         -0.61581       -5.38086        0.38700
C         -2.61679       -5.09867       -0.26393
C         -3.64480       -4.18681       -0.45633
H         -4.57756       -4.53030       -0.87381
C         -3.42180       -2.83765       -0.26078
H         -4.18676       -2.11636       -0.50278
C         -3.17634        0.29496        0.43356
C         -3.52135        0.36298        1.76232
H         -2.93189       -0.16403        2.49590
C         -4.61481        1.10157        2.15754
H         -4.88713        1.17242        3.19878
C         -5.37576        1.77513        1.22142
C         -5.02684        1.70218       -0.11233
H         -5.62041        2.24554       -0.83039
C         -3.93248        0.95879       -0.50585
H         -3.66326        0.90042       -1.54775
C         -1.46375       -0.30691       -1.89039
C         -0.98655        0.97922       -2.05280
H         -0.77141        1.57008       -1.17950
C         -0.62978        1.46919       -3.30818
C         -0.97752        0.71073       -4.41955
H         -0.74905        1.08280       -5.40424
C         -1.45548       -0.57542       -4.26673
H         -1.59535       -1.19310       -5.13772
C         -1.59350       -1.15041       -3.00347
C          1.72110       -0.16615       -1.76901
C          1.24616       -1.46606       -1.77297
H          0.95711       -1.92221       -0.84046
C          0.98236       -2.13878       -2.96560
C          1.41851       -1.55062       -4.14712
H          1.26321       -2.06550       -5.08046
C          1.88826       -0.25258       -4.15209
H          2.09556        0.22956       -5.09243
C          1.93408        0.50483       -2.98178
C         -1.52139       -2.65959       -2.92318
H         -2.14326       -3.09712       -3.71275
H         -1.99745       -2.99778       -2.00658
C         -0.05751       -3.22723       -3.00809
H          0.13042       -3.94686       -2.20422
H          0.07139       -3.80877       -3.92789
C          0.41239        2.54865       -3.42184
H          0.15352        3.37131       -2.74651
H          0.36165        2.99163       -4.42274
C          1.86247        2.00986       -3.13162
H          2.54813        2.32471       -3.92631
H          2.26085        2.47852       -2.23586
C          1.87704        2.27512        0.04548
C          0.70094        2.95946        0.26559
C          3.03358        2.95356       -0.27452
C          0.65052        4.31781        0.02807
C          2.97950        4.31026       -0.52010
C          1.77375        4.98752       -0.42862
C          3.42231       -0.14314        0.66229
C          3.91742       -1.34810        0.22001
C          4.08978        0.55815        1.64027
C          5.08200       -1.85395        0.75720
H          3.39977       -1.88896       -0.55453
C          5.25575        0.05206        2.17879
H          3.69007        1.49508        1.99387
C          5.75635       -1.15851        1.74213
H          5.48883       -2.79160        0.41311
H          5.79622        0.58841        2.94284
Pd         0.10144       -0.25609        1.26171
Cl        -1.27291       -1.23275        2.75898
Cl         1.53199        0.37420        2.88139
H          3.84504        4.83176       -0.89571
H          3.95005        2.40728       -0.43646
H         -0.28154        4.85843        0.08926
H         -0.18602        2.43244        0.57548
C         -4.07728       -7.02387       -1.03964
C         -2.63582       -6.44647       -0.94175
C         -1.97590       -6.22604       -2.34094
F         -4.01509       -8.28540       -1.49352
F         -4.60943       -7.00118        0.19131
F         -4.81231       -6.26485       -1.86398
F         -1.88563       -7.31653       -0.26138
F         -0.70296       -5.86493       -2.13056
F         -2.03157       -7.35807       -3.05511
F         -2.61012       -5.22832       -2.97207
C         -7.42193        1.91039        2.68124
C         -6.52905        2.65013        1.64184
C         -5.95666        3.98681        2.19402
F         -7.74250        0.71609        2.16111
F         -6.73780        1.74016        3.82121
F         -8.53199        2.63155        2.90189
F         -7.29358        2.93916        0.58512
F         -5.27848        4.57399        1.19640
F         -6.96548        4.77378        2.59717
F         -5.12403        3.72295        3.21179
C          6.92334       -3.17535        2.68668
C          7.06137       -1.67490        2.29257
C          8.17484       -1.44114        1.23159
F          8.03319       -3.56625        3.33181
F          5.85694       -3.28566        3.49306
F          6.73595       -3.91394        1.58406
F          7.39693       -0.99592        3.39296
F          8.25971       -0.11839        1.02422
F          9.34131       -1.91450        1.69502
F          7.83338       -2.05655        0.09003
C          2.87244        7.16913       -1.10763
C          1.57893        6.30406       -1.13745
C          1.13000        5.94194       -2.58849
F          2.59116        8.39622       -1.57295
F          3.28534        7.24103        0.16643
F          3.81948        6.58910       -1.85785
F          0.59910        7.00219       -0.55843
F         -0.07953        5.37395       -2.50169
F          1.07843        7.04839       -3.34231
F          1.98866        5.04955       -3.10162
