105
-153.06998064
Cl        -0.47161        1.83958       -3.04375
Pd         0.33157        1.25765       -1.01703
P          1.46271        0.55267        0.91756
N          1.33773       -1.04706        1.63226
C          0.28473       -1.96294        1.52929
C         -0.16945       -2.45988        0.27967
C         -1.18680       -3.43459        0.25126
C         -1.63469       -3.98114       -1.08353
C         -2.47334       -5.26579       -0.99817
C         -3.51943       -5.16437        0.11554
C         -2.84281       -4.93595        1.47548
C         -1.74345       -3.90365        1.44397
C         -1.26037       -3.42526        2.65524
C         -0.26386       -2.48598        2.70024
H          0.09824       -2.12727        3.64786
H         -1.68484       -3.80207        3.57047
H         -3.58703       -4.63661        2.22460
H         -4.19811       -4.32957       -0.09958
H         -2.95221       -5.48494       -1.96298
H         -2.20938       -3.20281       -1.59854
C          0.54334       -2.11946       -0.97527
C         -0.16192       -1.49457       -2.04083
C          0.48860       -1.33235       -3.26741
C          1.78474       -1.74198       -3.43836
C          2.48651       -2.36243       -2.41251
C          3.89345       -2.82680       -2.69007
C          4.34955       -3.96293       -1.76390
C          4.04935       -3.62110       -0.30184
C          2.55063       -3.35084       -0.08133
C          1.86550       -2.56524       -1.17768
H          2.01948       -4.30271        0.03788
H          4.62895       -2.73656       -0.01032
H          5.41880       -4.17688       -1.90362
H          4.57213       -1.97139       -2.59401
H          2.27433       -1.58653       -4.38483
H         -0.03279       -0.83993       -4.06940
N         -1.45632       -0.97950       -1.88428
P         -1.71106        0.17643       -0.57627
C         -2.56952       -0.47164        0.84801
C         -3.63722       -1.31919        0.67969
C         -4.34282       -1.75579        1.78673
C         -3.98164       -1.34206        3.06252
C         -2.92042       -0.45747        3.20402
C         -2.21896       -0.02061        2.09539
H         -1.39667        0.66697        2.19289
H         -2.64457       -0.11473        4.18653
C         -4.74189       -1.80854        4.25435
H         -5.17923       -2.42263        1.66557
H         -3.91359       -1.63101       -0.31498
C         -2.69510        1.58560       -1.10364
C         -2.50774        2.79355       -0.47325
C         -3.26035        3.88963       -0.85308
C         -4.21397        3.77785       -1.85585
C         -4.39070        2.54782       -2.47551
C         -3.63676        1.45237       -2.09522
H         -3.78460        0.49409       -2.56565
H         -5.12160        2.45382       -3.26040
C         -5.00297        4.96487       -2.28702
H         -3.10804        4.84131       -0.37324
H         -1.76965        2.87673        0.30957
H         -1.82801       -0.51928       -2.70496
H          1.79479       -0.95703        2.53063
C          0.83587        1.80405        2.04508
C          0.69822        3.09929        1.60268
C          0.17368        4.06297        2.44356
C         -0.20254        3.73933        3.74002
C         -0.04553        2.42984        4.17324
C          0.47888        1.46797        3.32963
H          0.58602        0.44934        3.66271
H         -0.34412        2.16646        5.17360
C         -0.80103        4.76715        4.63601
H          0.05202        5.07463        2.09578
H          1.00916        3.35295        0.60148
C          3.22497        0.82114        0.71282
C          3.91368        0.02175       -0.16475
C          5.27434        0.19817       -0.33829
C          5.95504        1.17427        0.37608
C          5.24038        1.97812        1.25407
C          3.87965        1.79897        1.42390
H          3.32530        2.42115        2.10721
H          5.75602        2.74854        1.80152
C          7.41409        1.38602        0.16749
H          5.81553       -0.41698       -1.03646
H          3.37339       -0.72033       -0.72795
Cl         2.33873        2.01359       -1.71552
H         -2.42274       -5.88028        1.84181
H         -1.81263       -6.11854       -0.79763
H         -4.15396       -6.06169        0.13847
H         -0.74956       -4.15312       -1.70893
H          4.39830       -4.42565        0.36086
H          2.41475       -2.82288        0.86838
H          3.96639       -3.14047       -3.73935
H          3.82517       -4.88760       -2.03624
H         -5.55382       -1.11935        4.49031
H         -5.17565       -2.79485        4.08336
H         -4.09471       -1.87980        5.12972
H         -5.98414        4.67076       -2.66232
H         -5.15970        5.65599       -1.45764
H         -4.48624        5.50440       -3.08185
H         -0.44080        5.76607        4.38603
H         -1.88845        4.76999        4.54913
H         -0.54694        4.57546        5.67947
H          7.58984        2.08734       -0.64931
H          7.88639        1.78864        1.06463
H          7.91627        0.44941       -0.07892
