115
-277.94071843
P         -1.69400       -0.54934        0.05533
P          2.04396        0.48540        0.00333
C         -2.07411       -2.29451        0.26391
C         -1.06501       -3.19731        0.52011
H         -0.08676       -2.85183        0.81046
C         -1.29166       -4.54362        0.32244
H         -0.48895       -5.25957        0.40973
C         -2.51817       -4.98228       -0.14938
C         -3.56100       -4.07643       -0.27907
H         -4.50849       -4.41988       -0.66226
C         -3.34094       -2.72987       -0.06478
H         -4.12271       -2.01130       -0.25623
C         -3.12565        0.38158        0.65264
C         -3.89395        1.05434       -0.27009
H         -3.61863        1.03597       -1.31199
C         -5.01766        1.74198        0.13771
H         -5.63373        2.26791       -0.57438
C         -5.38202        1.75700        1.47041
C         -4.61240        1.07219        2.38930
H         -4.91725        1.07665        3.42405
C         -3.48688        0.38937        1.97940
H         -2.89048       -0.14945        2.69801
C         -1.42871       -0.12861       -1.70184
C         -0.91771        1.14867       -1.83093
H         -0.66340        1.70128       -0.94260
C         -0.58770        1.67543       -3.07891
C         -0.99593        0.97101       -4.20522
H         -0.79023        1.37460       -5.18249
C         -1.50714       -0.30575       -4.08499
H         -1.69505       -0.88462       -4.97344
C         -1.62015       -0.92513       -2.84037
C          1.77674       -0.08347       -1.70969
C          1.25715       -1.36537       -1.74082
H          0.99123       -1.84594       -0.81372
C          0.92476       -1.98433       -2.94512
C          1.33164       -1.36573       -4.12149
H          1.12306       -1.84057       -5.06559
C          1.84139       -0.08291       -4.09887
H          2.02468        0.42802       -5.02896
C          1.95953        0.62797       -2.90452
C         -1.58942       -2.43807       -2.81899
H         -2.25233       -2.82714       -3.60041
H         -2.03983       -2.79767       -1.89743
C         -0.14639       -3.04178       -2.98242
H          0.05447       -3.79290       -2.21110
H         -0.07029       -3.59478       -3.92541
C          0.47955        2.72999       -3.19117
H          0.27523        3.52560       -2.46666
H          0.39561        3.22280       -4.16630
C          1.92557        2.13966       -2.99612
H          2.57809        2.46490       -3.81420
H          2.38518        2.56614       -2.10829
C          2.21934        2.26912        0.14080
C          1.11951        3.06285        0.38218
C          3.43230        2.83170       -0.19718
C          1.19991        4.41972        0.15071
C          3.51020        4.19084       -0.43002
C          2.37748        4.98019       -0.31946
C          3.54069       -0.27515        0.67310
C          3.99087       -1.45255        0.12173
C          4.23944        0.31356        1.70204
C          5.14032       -2.04357        0.60159
H          3.45302       -1.90253       -0.69573
C          5.38983       -0.27781        2.18358
H          3.88110        1.23452        2.13347
C          5.84478       -1.46164        1.63787
H          5.51358       -2.95849        0.16989
H          5.95557        0.17225        2.98414
Pd         0.22582       -0.12481        1.36035
Cl        -1.13941       -1.09589        2.87341
Cl         1.67554        0.53447        2.94975
H          4.41441        4.63710       -0.81389
H          4.28595        2.19782       -0.38065
H          0.32234        5.04118        0.22720
H          0.18895        2.62218        0.69886
C         -3.99937       -6.90257       -0.89714
C         -2.55813       -6.31833       -0.84896
C         -1.95889       -6.06948       -2.27031
F         -4.48250       -6.89863        0.35406
F         -4.77008       -6.13699       -1.68195
F         -3.94889       -8.15783       -1.36956
F         -1.77578       -7.19550       -0.21556
F         -2.05156       -7.18469       -3.00681
F         -2.61487       -5.05469       -2.85022
F         -0.67636       -5.71848       -2.10761
C         -6.69992        3.89257        1.32759
C         -6.64217        2.45286        1.91805
C         -7.86458        1.58907        1.49464
F         -5.54426        4.50125        1.63372
F         -6.83906        3.82633       -0.00388
F         -7.73069        4.55387        1.87634
F         -6.65941        2.56005        3.24950
F         -7.83503        1.40322        0.16679
F         -7.75569        0.40671        2.11929
F         -8.99765        2.20606        1.86226
C          6.98378       -3.59502        2.33296
C          7.14085       -2.05980        2.12254
C          8.25816       -1.71275        1.09726
F          5.91000       -3.78881        3.11330
F          6.79730       -4.19440        1.14877
F          8.08443       -4.07280        2.93386
F          7.48330       -1.52282        3.29680
F          8.36241       -0.37589        1.05575
F          9.41730       -2.25720        1.49637
F          7.90745       -2.17621       -0.11138
C          1.77606        5.99830       -2.46358
C          2.35106        6.30185       -1.04413
C          1.52181        7.36407       -0.26645
F          1.77930        7.11607       -3.20221
F          2.55685        5.06196       -3.02174
F          0.53656        5.50840       -2.33917
F          3.59115        6.77417       -1.19285
F          1.62141        8.54472       -0.89689
F          0.24045        6.97774       -0.19565
F          2.03690        7.45477        0.96892
