111
-148.56012707
P         -2.50970       -2.27510       -0.49532
P         -0.00621       -0.32231       -0.49978
C         -1.60067       -1.98010       -2.03360
C         -0.51156       -1.13601       -2.02820
C         -3.03578       -4.03964       -0.32473
C         -2.19519       -4.75896        0.70771
C         -2.00270       -2.57979       -3.20980
H         -2.86608       -3.22494       -3.21102
C         -1.30308       -2.33855       -4.37963
H         -1.61511       -2.80717       -5.29869
C         -0.20847       -1.49547       -4.37120
H          0.33569       -1.30665       -5.28193
C          0.18605       -0.88902       -3.19207
H          1.03540       -0.22436       -3.17041
Pd        -1.22663       -1.35548        1.17268
Cl        -2.65658       -2.06787        2.75036
Cl         0.04887       -0.35218        2.72984
C         -4.52816       -3.91670        0.03696
C         -4.15512       -1.43148       -0.46164
H         -2.50790       -5.79943        0.82312
H         -1.13715       -4.74996        0.43460
H         -2.28523       -4.27774        1.68304
H         -4.62663       -3.92536        1.13132
H         -5.08277       -4.79930       -0.31649
H         -4.21889       -0.92797        0.51215
C         -5.14931       -2.60635       -0.52612
C         -4.28199       -0.43623       -1.59547
H         -2.91657       -4.50171       -1.31292
H         -5.44516       -2.76233       -1.57266
H         -6.07764       -2.35130        0.00730
H         -5.25102        0.06807       -1.57865
H         -3.49990        0.32513       -1.54586
H         -4.18649       -0.93622       -2.56102
C         -1.13159        4.09211       -0.48383
C         -0.07124        3.63506       -1.30779
C          0.25224        2.28824       -1.27362
C         -0.48441        1.40315       -0.53031
C         -1.58558        1.82249        0.17011
C         -1.95493        3.15644        0.19233
O         -1.34420        5.48494       -0.30454
C          0.74039        4.57661       -2.21181
H          1.09977        1.91192       -1.82029
H         -2.14886        1.09475        0.72590
C         -3.19981        3.57320        0.99134
C          4.41789       -0.83640        0.45190
C          3.70928        0.28728        0.94800
C          2.36405        0.40101        0.64012
C          1.74336       -0.50834       -0.17486
C          2.44602       -1.54325       -0.73470
C          3.79694       -1.71022       -0.47744
O          5.73286       -1.10887        0.91430
C          4.35721        1.35091        1.84767
H          1.76928        1.19624        1.05594
H          1.91857       -2.22837       -1.37529
C          4.55786       -2.84315       -1.18429
C         -0.12302        5.75001       -2.70992
C          1.95701        5.10556       -1.43772
C          1.24289        3.82561       -3.46598
C         -4.24665        2.43621        1.01172
C         -2.78898        3.88320        2.43883
C         -3.88273        4.79847        0.35734
C         -0.59604        6.05111        0.76431
H         -0.45074        6.37967       -1.88664
H          0.43352        6.37920       -3.40409
H         -1.01103        5.38208       -3.22277
H          2.54842        5.78183       -2.05443
H          1.65314        5.64452       -0.54357
H          2.60095        4.28380       -1.12702
H          1.99061        3.07493       -3.21460
H          0.41781        3.33047       -3.97743
H          1.70737        4.51580       -4.16990
H         -5.17339        2.77264        1.47590
H         -4.48115        2.10812       -0.00010
H         -3.89924        1.57634        1.58240
H         -2.33177        3.01004        2.90390
H         -2.06661        4.69491        2.47834
H         -3.65289        4.17131        3.03715
H         -4.13657        4.60020       -0.68345
H         -4.79977        5.05403        0.88762
H         -3.23506        5.67121        0.38210
H          0.00768        5.28568        1.25368
H          0.05413        6.83703        0.38037
H         -1.27588        6.49665        1.49035
C          5.77897       -1.93882        2.06828
C          5.84825        1.53324        1.51148
C          3.67974        2.72501        1.64118
C          4.18942        0.93742        3.31768
C          6.03009       -2.45963       -1.42051
C          4.47307       -4.12080       -0.33579
C          3.94048       -3.13062       -2.57222
H          5.97606        1.78410        0.45898
H          6.28924        2.33237        2.10680
H          6.41407        0.62635        1.70870
H          4.21424        3.50547        2.18225
H          3.67149        2.99515        0.58604
H          2.65350        2.73009        2.00531
H          4.62612        1.67976        3.98515
H          3.13414        0.83457        3.56971
H          4.67004       -0.01765        3.51569
H          6.55921       -2.31868       -0.48135
H          6.55248       -3.23564       -1.97943
H          6.09858       -1.53038       -1.98513
H          4.91880       -3.97323        0.64491
H          3.43473       -4.41607       -0.18672
H          4.99288       -4.94672       -0.82068
H          2.94498       -3.56420       -2.48970
H          4.55260       -3.84031       -3.12833
H          3.86904       -2.21673       -3.16149
H          4.77102       -2.22697        2.36960
H          6.36409       -2.83263        1.85243
H          6.26329       -1.40426        2.88524
