171
-217.84645476
P         -1.60692        0.36752       -0.37516
P          1.61578       -0.37152       -0.19554
C         -0.81003        1.36755       -1.63801
C          0.98466       -1.31571       -1.58745
C          0.04478        0.78555       -2.56748
C          0.71659        1.61786       -3.48362
C          0.48600        2.98327       -3.45386
C         -0.38245        3.53812       -2.53792
C         -1.02444        2.72426       -1.62584
C          1.19994       -2.67196       -1.61050
C          0.68019       -3.44049       -2.63313
C         -0.06722       -2.84109       -3.62488
C         -0.29627       -1.47505       -3.62015
C          0.25187       -0.68856       -2.58874
Cl         1.43718        0.30666        2.96153
Cl        -1.77598       -0.32583        2.82126
C         -1.10605       -0.86427       -4.70993
C          1.66402        1.05893       -4.48687
H         -0.55768        4.60147       -2.53023
H         -1.69865        3.15066       -0.90126
H          1.77959       -3.13268       -0.82743
H          0.85731       -4.50332       -2.65364
H          0.99975        3.61462       -4.15914
H         -0.48486       -3.43738       -4.41857
C         -3.67656       -3.34238       -1.92160
C         -2.74499       -3.47130       -0.89969
C         -2.11361       -2.31910       -0.44899
C         -2.39182       -1.10478       -1.02495
C         -3.30321       -0.99548       -2.04669
C         -3.97267       -2.12103       -2.51355
H         -4.20374       -4.21813       -2.25232
H         -1.40780       -2.35634        0.36235
H         -3.49602       -0.02152       -2.46345
C         -4.64278        2.75795        2.00534
C         -3.29815        3.09334        2.11098
C         -2.38847        2.37442        1.34668
C         -2.80977        1.34620        0.54056
C         -4.14028        1.01728        0.46333
C         -5.08858        1.72602        1.18924
H         -5.36767        3.30392        2.57908
H         -1.33747        2.60366        1.39448
H         -4.43263        0.19153       -0.15986
C          4.38792       -2.82780        2.43307
C          3.04648       -3.18710        2.36143
C          2.21783       -2.44820        1.52669
C          2.71069       -1.38110        0.81784
C          4.03385       -1.03061        0.91614
C          4.90367       -1.75036        1.72251
H          5.04503       -3.39614        3.06242
H          1.17359       -2.69558        1.43981
H          4.39270       -0.17733        0.36818
C          3.88909        3.36543       -1.32834
C          2.83433        3.47198       -0.43083
C          2.13816        2.31428       -0.10762
C          2.47553        1.11814       -0.68931
C          3.50874        1.03149       -1.58995
C          4.24574        2.16183       -1.92345
H          4.46596        4.24362       -1.55232
H          1.33684        2.33128        0.61038
H          3.74454        0.06953       -2.01275
Pd        -0.09644       -0.04937        1.35960
C         -1.30485       -4.78707        0.72538
C         -2.47795       -4.84520       -0.27110
C         -2.12380       -5.86004       -1.37454
C         -3.73980       -5.30921        0.47696
H         -1.09041       -5.77567        1.13099
H         -0.40239       -4.42274        0.23576
H         -1.53354       -4.13073        1.56456
H         -1.88564       -6.83356       -0.94632
H         -2.95009       -5.99819       -2.07047
H         -1.25921       -5.52214       -1.94441
H         -3.58071       -6.27945        0.94716
H         -4.00896       -4.59571        1.25564
H         -4.58785       -5.39944       -0.20115
C         -4.74580       -3.03886       -4.72674
C         -5.05984       -2.04155       -3.59498
C         -5.15384       -0.62812       -4.20212
C         -6.41856       -2.39492       -2.96311
H         -4.73925       -4.06550       -4.36316
H         -5.49134       -2.97441       -5.51913
H         -3.77076       -2.83463       -5.16641
H         -4.20459       -0.32632       -4.64359
H         -5.90960       -0.59382       -4.98669
H         -5.43232        0.10668       -3.44706
H         -6.41162       -3.40462       -2.55378
H         -6.65668       -1.70810       -2.15169
H         -7.21927       -2.33742       -3.70022
C         -2.36812        5.41338        2.14167
C         -2.79875        4.22597        3.01893
C         -1.60037        3.73019        3.85372
C         -3.89563        4.69960        3.99254
H         -3.21209        5.79357        1.56638
H         -1.97688        6.22888        2.74965
H         -1.59435        5.11616        1.43604
H         -1.26610        4.49836        4.55068
H         -1.87322        2.84628        4.42978
H         -0.75202        3.46799        3.22395
H         -4.73739        5.13828        3.45742
H         -4.26354        3.87114        4.59765
H         -3.50858        5.46048        4.67022
C         -7.37837        2.62566        0.69016
C         -6.58368        1.38229        1.13060
C         -7.05248        0.93090        2.52549
C         -6.86537        0.24638        0.12703
H         -8.44232        2.40165        0.61489
H         -7.26093        3.44444        1.39889
H         -7.03722        2.97449       -0.28441
H         -8.10825        0.66070        2.51442
H         -6.48432        0.06270        2.85896
H         -6.91734        1.72156        3.26265
H         -6.34982       -0.66972        0.41487
H         -7.93136        0.02359        0.08314
H         -6.54418        0.52428       -0.87664
C          3.45243       -4.88078        4.21853
C          2.46591       -4.36937        3.15046
C          2.15630       -5.51574        2.17301
C          1.17293       -3.92874        3.86637
H          3.73564       -4.08075        4.90236
H          3.00302       -5.67927        4.80883
H          4.35651       -5.28300        3.76225
H          1.46075       -5.19266        1.40042
H          3.06563       -5.85634        1.67815
H          1.71408       -6.36560        2.69255
H          0.77306       -4.73523        4.48062
H          1.36496       -3.07361        4.51404
H          0.39808       -3.64200        3.15752
C          7.18022       -2.21141        2.76654
C          6.37600       -1.32225        1.79923
C          6.45462        0.13470        2.29418
C          7.00562       -1.42644        0.39774
H          8.22059       -1.88969        2.81272
H          6.77370       -2.15929        3.77639
H          7.17160       -3.25195        2.44259
H          5.94996        0.81511        1.60917
H          5.98256        0.23439        3.27132
H          7.49051        0.46126        2.38364
H          8.05518       -1.13357        0.41790
H          6.94650       -2.44846        0.02403
H          6.49281       -0.78105       -0.31420
C          2.30031        5.88367       -0.89222
C          2.50359        4.82633        0.20938
C          3.66578        5.24610        1.12613
C          1.21423        4.74935        1.04839
H          1.50992        5.57838       -1.57682
H          2.02097        6.84536       -0.46216
H          3.20827        6.03307       -1.47486
H          3.82862        4.50157        1.90527
H          4.59307        5.34903        0.56338
H          3.45768        6.20097        1.60849
H          0.95935        5.72608        1.45932
H          0.37723        4.41416        0.43683
H          1.33007        4.06125        1.88529
C          5.34887        3.16192       -3.95429
C          5.47071        2.09774       -2.84666
C          5.60716        0.71509       -3.51416
C          6.73535        2.36625       -2.01075
H          6.19391        3.10676       -4.64039
H          4.43726        3.01831       -4.53268
H          5.32654        4.16893       -3.54011
H          6.46040        0.69563       -4.19203
H          5.76194       -0.06753       -2.77194
H          4.71798        0.46941       -4.09381
H          6.83354        1.63055       -1.21281
H          7.63116        2.31594       -2.62941
H          6.69989        3.35339       -1.55090
H         -1.96404       -1.49073       -4.95328
H          2.55318        1.68409       -4.56969
H         -0.51212       -0.74513       -5.61706
H         -1.48640        0.11687       -4.42250
H          1.20082        1.00518       -5.47300
H          1.99194        0.05577       -4.21120
