105
-153.07115798
Cl        -0.48635        2.02630       -2.96741
Pd         0.34895        1.18880       -1.04927
P          1.48118        0.56053        0.90875
N          1.34205       -1.04078        1.61895
C          0.28767       -1.95623        1.51959
C         -0.17382       -2.45611        0.27350
C         -1.19006       -3.43230        0.25320
C         -1.64411       -3.98384       -1.07746
C         -2.47801       -5.27097       -0.98365
C         -3.51936       -5.16885        0.13439
C         -2.83752       -4.93289        1.49042
C         -1.73980       -3.89910        1.44996
C         -1.25087       -3.41701        2.65726
C         -0.25481       -2.47700        2.69438
H          0.11200       -2.11585        3.63928
H         -1.67002       -3.79185        3.57575
H         -3.57917       -4.63114        2.24111
H         -4.20198       -4.33731       -0.08090
H         -2.96052       -5.49522       -1.94547
H         -2.22450       -3.20887       -1.59110
C          0.52822       -2.11631       -0.98740
C         -0.18823       -1.49896       -2.05103
C          0.45545       -1.33217       -3.28111
C          1.75593       -1.72713       -3.45551
C          2.46806       -2.33873       -2.43122
C          3.87839       -2.78997       -2.71016
C          4.32304       -3.95261       -1.81211
C          4.03702       -3.63575       -0.34145
C          2.54525       -3.33900       -0.10381
C          1.85338       -2.55074       -1.19491
H          2.00119       -4.28170        0.02943
H          4.63781       -2.77079       -0.03464
H          5.38774       -4.18061       -1.96389
H          4.55418       -1.93681       -2.57941
H          2.24077       -1.56685       -4.40358
H         -0.07430       -0.84682       -4.08195
N         -1.48337       -0.98611       -1.88582
P         -1.71927        0.17272       -0.57520
C         -2.57407       -0.47380        0.85204
C         -3.64230       -1.32125        0.68655
C         -4.34544       -1.75740        1.79536
C         -3.98131       -1.34331        3.07018
C         -2.91985       -0.45864        3.20889
C         -2.22089       -0.02217        2.09852
H         -1.39861        0.66568        2.19427
H         -2.64181       -0.11560        4.19070
C         -4.73850       -1.80978        4.26398
H         -5.18205       -2.42439        1.67643
H         -3.92089       -1.63361       -0.30734
C         -2.69555        1.59030       -1.08993
C         -2.49197        2.79352       -0.45604
C         -3.23847        3.89779       -0.82407
C         -4.20214        3.79865       -1.81850
C         -4.39507        2.57293       -2.44200
C         -3.64706        1.46938       -2.07357
H         -3.80744        0.51443       -2.54673
H         -5.13385        2.48867       -3.22060
C         -4.98409        4.99474       -2.23722
H         -3.07298        4.84607       -0.34190
H         -1.74490        2.86686        0.31904
H         -1.86421       -0.52956       -2.70448
H          1.79780       -0.95095        2.51797
C          0.82531        1.81378        2.01609
C          0.65584        3.09735        1.55139
C          0.10773        4.06196        2.37606
C         -0.27123        3.74821        3.67406
C         -0.06438        2.45535        4.13575
C          0.48308        1.49222        3.30832
H          0.62245        0.48407        3.66102
H         -0.34019        2.20598        5.14617
C         -0.84743        4.79075        4.56755
H         -0.02852        5.06717        2.01516
H          0.96088        3.34154        0.54598
C          3.24653        0.82910        0.73679
C          3.95530        0.00442       -0.10076
C          5.31936        0.17772       -0.24903
C          5.98263        1.17637        0.45062
C          5.24743        2.00594        1.28696
C          3.88343        1.82996        1.43172
H          3.31266        2.47192        2.08255
H          5.74980        2.79376        1.82182
C          7.44605        1.38329        0.26957
H          5.87657       -0.45763       -0.91588
H          3.42711       -0.75289       -0.65555
Cl         2.37678        1.90598       -1.73220
H         -2.41457       -5.87485        1.85956
H         -1.81357       -6.12081       -0.78309
H         -4.15058       -6.06832        0.16366
H         -0.76219       -4.15465       -1.70770
H          4.37295       -4.46140        0.30171
H          2.43014       -2.80302        0.84418
H          3.96407       -3.07153       -3.76752
H          3.78162       -4.86260       -2.10009
H         -5.55032       -1.12102        4.50159
H         -5.17199       -2.79645        4.09442
H         -4.08921       -1.88035        5.13784
H         -4.46416        5.53938       -3.02647
H         -5.96709        4.71059       -2.61538
H         -5.13639        5.67807       -1.40060
H         -1.50725        4.34824        5.31518
H         -0.05804        5.33074        5.09216
H         -1.43156        5.51608        3.99938
H          7.64080        2.05283       -0.56928
H          7.89584        1.82136        1.16166
H          7.95536        0.43898        0.07211
