64
-97.21824778
Cl        -1.36672       -0.58547       -2.82680
Cl         1.83599       -0.77220       -2.97358
P          1.94520       -0.58492        0.32501
C          2.18281       -2.32294        0.91783
C          3.72370       -0.06284        0.18291
P         -1.28580       -0.30846        0.34417
C          1.13419        0.47099        1.57941
C         -0.30704        0.61414        1.58584
C         -0.65283        1.61049        2.58775
C          0.58163        2.08618        3.18805
C          1.68905        1.36924        2.57975
H         -1.66294        1.91906        2.86350
H          0.66091        2.82763        3.98644
Pd         0.30874       -0.71491       -1.34073
H          2.74864        1.49375        2.81163
C         -5.17407        1.72814       -0.90297
C         -4.91696        0.41992       -1.26109
C         -3.73346       -0.18108       -0.87101
C         -2.81181        0.52466       -0.13148
C         -3.07190        1.82645        0.23234
C         -4.25238        2.43274       -0.15476
H         -6.09433        2.19936       -1.20769
H         -5.63397       -0.13214       -1.84627
H         -3.51878       -1.20079       -1.14858
H         -2.34896        2.36920        0.81500
H         -4.45116        3.45394        0.12653
C         -2.35220       -4.45291        1.86411
C         -2.06064       -4.26423        0.52707
C         -1.74300       -3.00051        0.06407
C         -1.71581       -1.94056        0.94062
C         -2.01379       -2.11930        2.27158
C         -2.33191       -3.38266        2.73745
H         -2.59950       -5.43747        2.22636
H         -2.08214       -5.09825       -0.15501
H         -1.52683       -2.83074       -0.97870
H         -1.98868       -1.27202        2.93864
H         -2.56207       -3.53031        3.77981
C          4.18410        0.05951       -1.25328
H          3.81430        0.90234        0.69830
C          4.46478       -1.17538        0.95063
H          4.57124       -0.89430        2.00865
C          3.70844       -2.52686        0.84995
H          5.48955       -1.27379        0.56360
C          1.61895       -2.48386        2.31297
H          1.65925       -2.97910        0.20903
H          4.02541       -3.21011        1.65105
H          3.97901       -3.02716       -0.09125
H          2.12084       -1.80907        3.00932
H          0.55402       -2.24788        2.34128
H          1.74866       -3.50317        2.68426
H          4.04752       -0.88674       -1.77916
H          3.62323        0.81984       -1.79827
H          5.24292        0.32059       -1.31282
Fe         0.61149        2.39173        1.16554
C          1.26466        2.41754       -0.79111
C          2.03076        3.35309        0.00908
C          1.10013        4.30157        0.59644
C         -0.23839        3.94626        0.15441
C         -0.13366        2.78875       -0.71626
H          1.66653        1.62147       -1.41960
H          3.11668        3.36068        0.12597
H          1.36212        5.14443        1.24013
H         -1.15587        4.48952        0.39279
H         -0.94860        2.29876       -1.25282
