45
-71.81988273
C          0.36088        1.46972        3.17063
P         -0.17554        0.76152        1.57868
P         -0.12448        0.79830       -1.56822
C          0.44452        1.53487       -3.13601
Cl         2.93026       -0.10929        1.67224
H          0.74942        2.47246        3.01732
H         -0.37797        1.59127       -3.84324
Cl         2.92588       -0.06467       -1.63240
C         -1.33438        1.82232        0.68805
C         -1.31133        1.83975       -0.69023
C         -2.21908        2.60831       -1.38984
C         -3.14854        3.36888       -0.70266
C         -3.17138        3.35151        0.67844
C         -2.26481        2.57348        1.37657
H         -2.20111        2.60356       -2.46757
H         -3.85757        3.97150       -1.24614
H         -3.89816        3.94066        1.21317
H         -2.28193        2.54180        2.45389
Pd         1.51625        0.47234        0.03173
H          1.23432        0.92311       -3.56259
H          1.14233        0.85055        3.60195
H          0.83030        2.53432       -2.95657
C         -1.73006       -3.43435       -1.94888
C         -2.60804       -2.38017       -1.78770
C         -2.12368       -1.08798       -1.69148
C         -0.76880       -0.86221       -1.76283
C          0.10949       -1.90842       -1.92335
C         -0.37048       -3.20131       -2.01715
H         -2.10668       -4.44183       -2.01735
H         -3.66817       -2.56374       -1.72760
H         -2.79360       -0.25579       -1.54655
H          1.16762       -1.70277       -1.95482
H          0.31549       -4.02368       -2.13655
C         -1.78761       -3.47597        1.85051
C         -0.42834       -3.24563        1.93350
C          0.05324       -1.95129        1.87258
C         -0.82364       -0.90135        1.72910
C         -2.17817       -1.12412        1.64370
C         -2.66395       -2.41778        1.70744
H         -2.16532       -4.48444        1.89361
H          0.25620       -4.07106        2.03905
H          1.11130       -1.74682        1.91802
H         -2.84642       -0.28814        1.51351
H         -3.72380       -2.59910        1.63644
H         -0.47597        1.51302        3.86174
