75
-122.81349641
P          1.80886       -0.57804       -0.07257
C          1.71837       -1.51429       -1.60878
C          1.95727       -2.86926       -1.56418
C          1.97345       -3.60617       -2.73483
C          1.75428       -2.97930       -3.94526
C          1.51183       -1.62089       -3.98657
C          1.49244       -0.88959       -2.81387
H          1.28587        0.16683       -2.83133
H          1.33031       -1.13166       -4.92938
H          1.76519       -3.55209       -4.85814
H          2.15935       -4.66703       -2.70105
H          2.14333       -3.34325       -0.61348
C          3.09426       -1.36792        0.90809
C          4.40100       -1.29160        0.48263
C          5.39692       -1.92886        1.20048
C          5.07422       -2.65043        2.33245
C          3.75907       -2.74391        2.74202
C          2.76578       -2.10622        2.02163
H          1.73412       -2.17837        2.32685
H          3.50555       -3.31196        3.62197
H          5.84926       -3.14614        2.89393
H          6.42168       -1.86558        0.87318
H          4.63464       -0.75103       -0.42111
C          2.19534        1.14845       -0.42231
C          3.33271        1.80322       -0.00987
C          3.49004        3.16198       -0.24606
C          2.47278        3.85158       -0.90538
C          1.31836        3.21412       -1.30205
C          1.17530        1.83866       -1.06063
O         -0.00190        1.15758       -1.41252
C         -1.20218        1.82254       -1.11501
C         -1.36276        3.18961       -1.39142
C         -2.55610        3.80520       -1.08503
C         -3.59982        3.10233       -0.48382
C         -3.40982        1.76277       -0.17302
C         -2.23050        1.13128       -0.49219
P         -1.82220       -0.54851        0.01412
C         -3.13837       -1.23793        1.02966
C         -4.38028       -1.39809        0.45803
C         -5.41509       -1.93931        1.19964
C         -5.19553       -2.32303        2.50758
C         -3.94511       -2.17099        3.07302
C         -2.91291       -1.62992        2.32910
H         -1.93407       -1.50388        2.76204
H         -3.77315       -2.47064        4.09377
H         -6.00084       -2.74349        3.08754
H         -6.38922       -2.06263        0.75567
H         -4.53197       -1.10593       -0.56952
C         -1.65154       -1.62518       -1.41102
C         -1.81480       -1.13090       -2.68456
C         -1.76302       -1.99057       -3.76631
C         -1.55004       -3.33970       -3.56254
C         -1.38586       -3.83049       -2.28222
C         -1.43967       -2.96838       -1.20157
H         -1.32876       -3.33678       -0.19365
H         -1.21624       -4.88275       -2.12383
H         -1.50515       -4.01020       -4.40514
H         -1.88496       -1.60673       -4.76576
H         -1.97817       -0.07501       -2.82603
Pd         0.03112        0.03448        1.37160
Cl        -1.54188        1.12563        2.57260
Cl         1.54331        0.49167        2.97094
H         -4.17823        1.22099        0.34958
C         -4.86368        3.79175       -0.11192
H         -5.71211        3.10770       -0.15754
H         -5.07171        4.62380       -0.78581
H         -4.80344        4.18638        0.90309
H         -2.67347        4.85293       -1.29857
S         -0.00558        4.08273       -2.10512
H          2.58068        4.90439       -1.09764
C          4.73122        3.86218        0.17985
H          4.09373        1.26494        0.52589
H          5.51421        3.75419       -0.57176
H          4.55172        4.92762        0.32913
H          5.10711        3.45539        1.11959
