72
-108.40098091
Cl         1.75626       -0.88751        2.65800
Cl        -1.05755        0.58251        2.73684
P         -1.11190        1.15899       -0.25959
P          2.27956       -0.12182       -0.36615
C          3.30340        1.44797       -0.06656
C          3.65780        1.53448        1.41906
C          4.56821        1.40774       -0.91640
C          3.32487       -1.70259       -0.18752
C          4.12930       -1.95708       -1.46825
C          1.44993       -0.32475       -2.04927
C          1.48885        0.91061       -2.92319
C         -1.13461       -0.17826       -1.48849
C          0.03985       -0.89045       -1.98787
C         -0.46040       -1.97525       -2.83450
C         -1.90780       -1.88705       -2.89948
C         -2.32362       -0.76712       -2.07583
C          2.47779        2.67833       -0.42173
H          2.76281        1.51835        2.04120
H          4.30198        0.72007        1.73903
H          5.12048        2.34465       -0.82659
H          4.33508        1.26130       -1.97050
C          4.28406       -1.63679        0.99701
H          4.64942       -1.06236       -1.80535
H          3.49987       -2.31181       -2.28357
H          2.06102       -1.08966       -2.53735
H          1.07436        0.70325       -3.91207
H          2.50303        1.28354       -3.06620
H          0.88318        1.70397       -2.49040
H          0.16271       -2.65413       -3.42013
H         -2.56652       -2.53349       -3.48397
Pd         0.52138        0.23424        1.16170
H         -3.34763       -0.44296       -1.87751
C          2.33271       -2.83583        0.02372
H          4.87998       -2.73089       -1.29914
H          3.76549       -1.37360        1.91662
H          4.75540       -2.60723        1.15919
H          5.08598       -0.92114        0.82565
H          1.83403       -2.73208        0.98621
H          1.57666       -2.84478       -0.76259
H          2.83754       -3.80395        0.01726
H          4.18836        2.46374        1.63300
H          5.23749        0.60884       -0.60182
H          2.29507        2.75744       -1.49028
H          1.52030        2.66625        0.09660
H          2.99704        3.59069       -0.12397
C         -2.76326        1.28322        0.45687
C         -3.16476        2.35873        1.20796
C         -4.48162        2.11232        1.59919
C         -4.82783        0.89485        1.06501
O         -3.78156        0.37563        0.35779
H         -2.56077        3.21997        1.44719
H         -5.10314        2.75102        2.20528
H         -5.78608        0.40327        1.17941
C         -0.78073        2.77433       -0.98159
C         -1.18282        3.11696       -2.24842
C         -0.77866        4.43614       -2.46036
C         -0.15179        4.84406       -1.30806
O         -0.14687        3.83229       -0.39020
H         -1.71513        2.47929       -2.93663
H         -0.93358        5.02172       -3.35181
H          0.28075        5.82182       -1.13565
Fe        -1.28702       -2.10918       -0.97227
C         -2.97127       -2.80265       -0.04501
C         -2.17609       -2.02620        0.88592
C         -0.87210       -2.64522        0.97335
C         -0.86232       -3.80623        0.10244
C         -2.17344       -3.92389       -0.50840
H         -4.01146       -2.60122       -0.31160
H         -2.49062       -1.12237        1.41031
H         -0.06876       -2.31331        1.63331
H         -0.04065       -4.51668       -0.01260
H         -2.49755       -4.70641       -1.19789
