115
-277.94076418
P         -1.50109       -0.67514       -0.12865
P          2.16300        0.24468        0.07612
C         -2.18120       -2.33236        0.02868
C         -1.35433       -3.38491        0.35677
H         -0.35869       -3.19954        0.72479
C         -1.77428       -4.67818        0.12568
H         -1.10504       -5.51214        0.27085
C         -3.00756       -4.91648       -0.45836
C         -3.87798       -3.85577       -0.66653
H         -4.82978       -4.04417       -1.13670
C         -3.46703       -2.56057       -0.41567
H         -4.10377       -1.72655       -0.66713
C         -2.76397        0.45059        0.50058
C         -3.35667        1.35327       -0.35222
H         -3.04716        1.40166       -1.38317
C         -4.35707        2.18223        0.11069
H         -4.83924        2.88765       -0.54754
C         -4.77255        2.10852        1.42702
C         -4.17510        1.19756        2.27491
H         -4.52151        1.13653        3.29471
C         -3.17067        0.37445        1.81167
H         -2.70789       -0.33973        2.47206
C         -1.17142       -0.32574       -1.89530
C         -0.59144        0.91692       -2.05550
H         -0.35061        1.49643       -1.18439
C         -0.15379        1.36905       -3.29877
C         -0.52570        0.63372       -4.41739
H         -0.23920        0.97947       -5.39653
C         -1.10974       -0.60849       -4.27152
H         -1.27424       -1.21830       -5.14380
C         -1.33020       -1.16270       -3.01004
C          1.99787       -0.43240       -1.61477
C          1.43604       -1.69733       -1.62557
H          1.10004       -2.13253       -0.69949
C          1.15433       -2.35689       -2.82220
C          1.66864       -1.81379       -3.99366
H          1.50045       -2.32222       -4.92832
C          2.23814       -0.55666       -3.99130
H          2.51252       -0.09949       -4.92683
C          2.30321        0.20419       -2.82466
C         -1.38342       -2.67249       -2.92989
H         -1.96833       -3.05781       -3.77350
H         -1.96776       -2.97288       -2.06438
C          0.03143       -3.35873       -2.89373
H          0.10471       -4.05476       -2.05172
H          0.17027       -3.99010       -3.77863
C          0.98376        2.35365       -3.37524
H          0.75728        3.21745       -2.74125
H          1.02950        2.76410       -4.38997
C          2.36345        1.70667       -2.97911
H          3.12921        1.96008       -3.72053
H          2.72997        2.13788       -2.05069
C          1.96386        2.03254        0.23851
C          0.71889        2.57891        0.46838
C          3.04258        2.84876       -0.02717
C          0.52234        3.92986        0.28360
C          2.84470        4.20222       -0.21479
C          1.57208        4.73864       -0.11960
C          3.73195       -0.28458        0.78790
C          4.29195       -1.45257        0.32500
C          4.36863        0.44957        1.76183
C          5.49842       -1.88526        0.83351
H          3.79031       -2.01889       -0.44279
C          5.57577        0.01562        2.27170
H          3.91423        1.35401        2.13317
C          6.14654       -1.15462        1.81101
H          5.95930       -2.78942        0.46944
H          6.09708        0.58038        3.02851
Pd         0.33453       -0.55645        1.32604
Cl        -1.07560       -1.59952        2.73884
Cl         1.84303       -0.20870        2.96256
H          3.65021        4.84142       -0.54116
H          4.01923        2.41616       -0.17831
H         -0.46629        4.35493        0.35049
H         -0.11495        1.95050        0.73321
C         -4.69241       -6.58267       -1.36777
C         -3.18900       -6.22963       -1.17901
C         -2.42666       -6.07913       -2.53498
F         -5.28028       -6.51563       -0.16407
F         -5.26260       -5.69967       -2.19912
F         -4.79266       -7.82608       -1.86293
F         -2.61477       -7.21783       -0.48874
F         -2.59302       -7.18288       -3.27572
F         -2.88444       -4.99613       -3.17754
F         -1.13026       -5.89629       -2.24847
C         -5.75954        4.42323        1.46686
C         -5.92330        2.94494        1.92632
C         -7.25100        2.31095        1.42147
F         -4.52917        4.82242        1.82363
F         -5.89380        4.49683        0.13508
F         -6.68621        5.17952        2.07580
F         -5.94962        2.93717        3.26194
F         -7.22055        2.23072        0.08301
F         -7.33179        1.07892        1.94646
F         -8.28782        3.05845        1.82881
C          7.52542       -3.10128        2.61772
C          7.50417       -1.57338        2.31539
C          8.56892       -1.16377        1.25761
F          6.48430       -3.37013        3.41972
F          7.40487       -3.78823        1.47322
F          8.67603       -3.41287        3.23397
F          7.78934       -0.93143        3.45164
F          8.52409        0.17190        1.14073
F          9.78412       -1.55375        1.67038
F          8.26272       -1.73048        0.08129
C          0.84160        5.74105       -2.23121
C          1.29789        6.06785       -0.77514
C          0.24369        6.88983        0.02030
F          0.60706        6.87800       -2.90013
F          1.82952        5.04654       -2.81223
F         -0.25546        4.97332       -2.18712
F          2.41858        6.79065       -0.84469
F          0.13210        8.10870       -0.53067
F         -0.93668        6.25505       -0.00275
F          0.68001        6.99210        1.28483
