111
-148.55896872
P         -2.41337       -2.45885       -0.14027
P         -0.07892       -0.33783       -0.48549
C         -1.67790       -2.19023       -1.77068
C         -0.69290       -1.23929       -1.92264
C         -2.49579       -4.25077        0.30228
C         -1.49281       -4.57315        1.38870
C         -2.12458       -2.90394       -2.86397
H         -2.89493       -3.64701       -2.73502
C         -1.58622       -2.65439       -4.11468
H         -1.93431       -3.20999       -4.97010
C         -0.61033       -1.68827       -4.26865
H         -0.19602       -1.48875       -5.24320
C         -0.16426       -0.97647       -3.16939
H          0.59201       -0.21412       -3.27437
Pd        -1.35046       -1.04008        1.32497
Cl        -2.81417       -1.56924        2.94153
Cl        -0.39078        0.55660        2.59083
C         -3.96731       -4.44134        0.71675
C         -4.21381       -2.02603       -0.09459
H         -1.53931       -5.62631        1.67608
H         -0.47228       -4.35328        1.06516
H         -1.68827       -3.97711        2.28249
H         -4.04186       -4.33494        1.80778
H         -4.29778       -5.46797        0.49734
H         -4.35882       -1.43983        0.82266
C         -4.89795       -3.39957        0.03374
C         -4.63010       -1.22673       -1.31139
H         -2.27565       -4.81055       -0.61604
H         -5.17109       -3.75442       -0.96950
H         -5.84814       -3.30364        0.58081
H         -4.03358       -0.31760       -1.41192
H         -4.49132       -1.80744       -2.22459
H         -5.68298       -0.93974       -1.26058
C         -0.95844        4.12014       -0.71281
C          0.30688        3.63262       -1.13030
C          0.54685        2.27154       -1.04015
C         -0.43728        1.40681       -0.63899
C         -1.69827        1.85913       -0.35138
C         -2.00082        3.20954       -0.40264
O         -1.16985        5.51722       -0.56873
C          1.42513        4.55397       -1.64278
H          1.51781        1.86676       -1.26800
H         -2.44323        1.14076       -0.05679
C         -3.42701        3.66692       -0.05957
C          4.38167       -0.97047        0.25599
C          3.61362       -0.15977        1.12905
C          2.25700       -0.03901        0.88430
C          1.67349       -0.61580       -0.21258
C          2.43096       -1.32249       -1.11059
C          3.79332       -1.48957       -0.92543
O          5.72830       -1.28660        0.57909
C          4.21828        0.56717        2.34050
H          1.62114        0.49530        1.56741
H          1.93974       -1.75162       -1.96477
C          4.60764       -2.24018       -1.99158
C          0.84500        5.78170       -2.36810
C          2.30022        4.99952       -0.46153
C          2.31785        3.81004       -2.66248
C         -4.45812        2.57920       -0.43726
C         -3.52312        3.92386        1.45226
C         -3.80747        4.93657       -0.84218
C         -0.82802        6.02479        0.71513
H          0.26439        6.40475       -1.69259
H          1.63819        6.40052       -2.78694
H          0.19041        5.47226       -3.18218
H          1.71748        5.53943        0.28078
H          2.74745        4.13725        0.03176
H          3.10635        5.65162       -0.79675
H          1.71494        3.36886       -3.45578
H          3.03003        4.49365       -3.12411
H          2.89667        3.01764       -2.19016
H         -5.47507        2.95162       -0.31600
H         -4.33591        2.27339       -1.47594
H         -4.36465        1.69858        0.19656
H         -4.52944        4.23324        1.73319
H         -3.27807        3.02121        2.01173
H         -2.83223        4.70293        1.76479
H         -4.83948        5.22469       -0.64359
H         -3.17377        5.77651       -0.56905
H         -3.70109        4.77265       -1.91399
H         -0.05364        6.78501        0.61446
H         -1.70304        6.48945        1.16930
H         -0.46792        5.22063        1.35818
C          5.87697       -2.46088        1.36739
C          5.67274        0.98903        2.06467
C          3.42696        1.85877        2.65126
C          4.15388       -0.35187        3.56957
C          6.03909       -1.68178       -2.08917
C          4.64490       -3.73608       -1.64438
C          3.96517       -2.07564       -3.38813
H          6.31470        0.12527        1.91146
H          5.72885        1.60939        1.17075
H          6.08055        1.55882        2.89924
H          3.92806        2.44401        3.42186
H          3.33894        2.48183        1.76208
H          2.42492        1.64071        3.01750
H          3.12276       -0.62783        3.78933
H          4.71410       -1.26930        3.40658
H          4.56565        0.14271        4.44888
H          6.58895       -1.83514       -1.16396
H          6.59664       -2.16996       -2.88810
H          6.02035       -0.61172       -2.29321
H          5.11355       -3.90533       -0.67807
H          3.63627       -4.14632       -1.59993
H          5.20489       -4.29668       -2.39245
H          3.00859       -2.59181       -3.45572
H          4.60871       -2.49450       -4.16147
H          3.80548       -1.02291       -3.62014
H          6.35869       -2.20931        2.31205
H          4.90420       -2.91338        1.56387
H          6.51139       -3.17497        0.84257
