111
-148.55474619
P         -1.79864       -2.73929       -0.47483
P         -0.49323        0.14640       -0.45526
C         -1.52360       -1.85505       -2.03837
C         -1.02677       -0.56875       -2.02099
C         -0.65484       -4.18850       -0.36220
C          0.32485       -4.01000        0.77849
C         -1.77575       -2.47527       -3.24561
H         -2.12023       -3.49622       -3.25743
C         -1.55869       -1.79360       -4.43068
H         -1.76038       -2.27685       -5.37271
C         -1.07766       -0.49853       -4.40831
H         -0.90329        0.02988       -5.33112
C         -0.79970        0.11209       -3.19868
H         -0.38776        1.10834       -3.16316
Pd        -1.58052       -1.10407        1.15443
Cl        -2.97584       -2.32859        2.40989
Cl        -1.20618        0.54894        2.62791
C         -1.60867       -5.38863       -0.19657
C         -3.43158       -3.61372       -0.41502
H          0.98798       -4.87287        0.87488
H          0.94560       -3.12262        0.63754
H         -0.20491       -3.89012        1.72576
H         -1.65858       -5.65271        0.86864
H         -1.19759       -6.27676       -0.69973
H         -3.77770       -3.53161        0.62311
C         -3.04112       -5.07215       -0.71384
C         -4.45793       -3.01399       -1.35261
H         -0.13379       -4.23843       -1.32717
H         -3.08898       -5.23947       -1.79849
H         -3.77871       -5.76271       -0.27694
H         -4.61899       -1.95547       -1.13623
H         -4.13722       -3.08982       -2.39164
H         -5.41911       -3.52638       -1.27025
C         -0.48530        4.69806       -0.41540
C         -1.59111        3.99767        0.13186
C         -1.58905        2.61361        0.06976
C         -0.51156        1.93329       -0.43289
C          0.60493        2.60135       -0.86385
C          0.66640        3.98456       -0.83450
O         -0.54237        6.10873       -0.57103
C         -2.78162        4.71595        0.78687
H         -2.42791        2.04278        0.42880
H          1.43811        2.01978       -1.22028
C          1.96597        4.68398       -1.26290
C          3.70979       -1.35174        0.46713
C          3.11852       -1.64844       -0.78997
C          1.85372       -1.15013       -1.05251
C          1.15724       -0.45381       -0.10004
C          1.67044       -0.27976        1.15748
C          2.92704       -0.75356        1.49024
O          5.09495       -1.57712        0.67355
C          3.79259       -2.50576       -1.87392
H          1.39777       -1.30182       -2.01542
H          1.05737        0.21541        1.89093
C          3.37276       -0.63249        2.95664
C         -3.85025        5.00742       -0.27710
C         -3.40881        3.83291        1.89020
C         -2.33489        6.02532        1.46253
C          3.19114        3.78936       -0.96227
C          1.91961        4.96252       -2.77271
C          2.16929        5.99791       -0.48691
C         -1.08243        6.53292       -1.81609
H         -4.71346        5.50603        0.16302
H         -3.45826        5.64690       -1.06439
H         -4.19418        4.08330       -0.74103
H         -2.64911        3.49542        2.59481
H         -4.16170        4.38779        2.44939
H         -3.90222        2.95618        1.47369
H         -1.95336        6.73726        0.73485
H         -3.16522        6.50059        1.98416
H         -1.54458        5.83229        2.18719
H          3.18752        3.46308        0.07756
H          3.21213        2.90576       -1.59855
H          4.11937        4.33212       -1.13938
H          1.80454        4.03449       -3.33233
H          1.08326        5.60873       -3.02843
H          2.83544        5.44825       -3.10857
H          3.12123        6.46180       -0.74398
H          1.38332        6.71544       -0.70921
H          2.16009        5.81433        0.58696
H         -0.34496        7.13295       -2.34888
H         -1.35870        5.67103       -2.42478
H         -1.96232        7.15172       -1.64087
C          5.88877       -0.45710        0.31943
C          4.23859       -1.60068       -3.03391
C          5.00454       -3.28491       -1.33456
C          2.78526       -3.55039       -2.40363
C          3.68520        0.83903        3.27429
C          2.23216       -1.12016        3.87830
C          4.60483       -1.49936        3.26790
H          4.96070       -0.85894       -2.69747
H          4.70236       -2.18522       -3.82805
H          3.38936       -1.06817       -3.46114
H          5.80309       -2.61137       -1.03244
H          4.72317       -3.88002       -0.46644
H          5.40849       -3.95670       -2.09157
H          1.93306       -3.08220       -2.89336
H          3.25657       -4.20895       -3.13271
H          2.40954       -4.16799       -1.58861
H          3.97970        0.95841        4.31657
H          4.49623        1.21159        2.65119
H          2.81386        1.46891        3.09745
H          1.93410       -2.13514        3.61691
H          2.54824       -1.12044        4.92103
H          1.35219       -0.48321        3.80735
H          4.42605       -2.53632        2.98561
H          4.84613       -1.47238        4.33024
H          5.47917       -1.15152        2.72282
H          6.93766       -0.68476        0.51051
H          5.75705       -0.22517       -0.73637
H          5.59490        0.41034        0.90859
