105
-153.07171370
Cl        -0.77283        2.06302       -2.90496
Pd         0.09297        1.53399       -0.89940
P          1.32638        0.71125        0.89444
N          0.66485       -0.55075        1.92025
C          0.04265       -1.76749        1.68359
C         -0.10134       -2.34447        0.39829
C         -0.85134       -3.52931        0.24941
C         -0.99467       -4.12385       -1.13232
C         -1.55535       -5.55454       -1.15917
C         -2.71889       -5.70949       -0.17559
C         -2.26325       -5.39282        1.25679
C         -1.43181       -4.13963        1.36316
C         -1.23136       -3.58573        2.62055
C         -0.51035       -2.43080        2.77859
H         -0.39275       -1.99955        3.75754
H         -1.66870       -4.06801        3.47837
H         -3.13282       -5.29813        1.91987
H         -3.52768       -5.02536       -0.46117
H         -1.86666       -5.83265       -2.17598
H         -1.63944       -3.46400       -1.72459
C          0.67945       -1.86410       -0.76743
C          0.02009       -1.24344       -1.86240
C          0.74355       -1.02651       -3.03836
C          2.05347       -1.41622       -3.14494
C          2.70017       -2.06119       -2.09787
C          4.10725       -2.55519       -2.30806
C          4.44225       -3.76717       -1.42783
C          4.11100       -3.46786        0.03718
C          2.62998       -3.09030        0.22232
C          2.01530       -2.28708       -0.90272
H          2.03716       -4.00413        0.34900
H          4.74474       -2.64366        0.38293
H          5.49651       -4.05722       -1.54170
H          4.80572       -1.73828       -2.09655
H          2.59270       -1.23747       -4.05970
H          0.25893       -0.52855       -3.85964
N         -1.31564       -0.82789       -1.79733
P         -1.82173        0.19309       -0.44718
C         -2.78776       -0.72590        0.74967
C         -3.56484       -1.76156        0.28994
C         -4.36931       -2.46126        1.17141
C         -4.40618       -2.11663        2.51573
C         -3.62291       -1.05811        2.95666
C         -2.82245       -0.35713        2.07316
H         -2.21738        0.46566        2.41431
H         -3.63937       -0.79010        3.99926
C         -5.23261       -2.89686        3.47741
H         -4.96947       -3.28300        0.82027
H         -3.53149       -2.02075       -0.75645
C         -2.93292        1.48973       -1.01134
C         -2.90586        2.72495       -0.40755
C         -3.76569        3.71817       -0.83891
C         -4.65796        3.47943       -1.87534
C         -4.68492        2.21846       -2.45585
C         -3.82308        1.22625       -2.02426
H         -3.84591        0.24542       -2.47131
H         -5.38444        2.01844       -3.24941
C         -5.59684        4.54331       -2.32707
H         -3.74670        4.68838       -0.37260
H         -2.21013        2.91124        0.39489
H         -1.65413       -0.35271       -2.62412
H          0.86515       -0.30134        2.88135
C          1.27952        2.20353        1.89528
C          2.41664        2.92730        2.16411
C          2.33146        4.08798        2.91059
C          1.10722        4.52908        3.39531
C         -0.03148        3.79032        3.10355
C          0.05725        2.62926        2.35730
H         -0.82344        2.05507        2.12199
H         -0.98839        4.13235        3.45924
C          1.01058        5.79634        4.17126
H          3.21757        4.66424        3.11516
H          3.36462        2.59078        1.77791
C          3.05216        0.38137        0.54196
C          3.61963        0.74231       -0.65671
C          4.96871        0.53146       -0.87101
C          5.76002       -0.03972        0.11612
C          5.17596       -0.36992        1.33152
C          3.82391       -0.16313        1.54097
H          3.36595       -0.41727        2.48389
H          5.78520       -0.79302        2.11188
C          7.21523       -0.25765       -0.11047
H          5.41715        0.81702       -1.80724
H          3.01099        1.20915       -1.41302
Cl         1.66421        3.13446       -1.05665
H         -1.68109       -6.23278        1.65414
H         -0.75991       -6.26168       -0.89224
H         -3.15061       -6.71859       -0.23634
H         -0.01750       -4.09796       -1.63075
H          4.37544       -4.32267        0.67536
H          2.49948       -2.53171        1.15708
H          4.25202       -2.79954       -3.36814
H          3.85781       -4.63316       -1.76339
H         -4.63348       -3.66641        3.96617
H         -5.64850       -2.25096        4.25193
H         -6.06582       -3.38902        2.97390
H         -6.52140        4.51542       -1.74886
H         -5.15492        5.53363       -2.20881
H         -5.85397        4.42029       -3.38003
H          1.92465        5.98271        4.73675
H          0.84720        6.64535        3.50613
H          0.18347        5.76109        4.88171
H          7.42530       -0.44659       -1.16421
H          7.79031        0.61700        0.19630
H          7.57762       -1.11582        0.45734
