115
-277.94109701
P         -1.89090       -0.33701        0.02454
P          1.74993        0.71109       -0.18349
C         -1.74633       -2.11841        0.28193
C         -0.53097       -2.69580        0.58497
H          0.31304       -2.08419        0.85652
C         -0.37955       -4.06286        0.48172
H          0.58653       -4.52706        0.60976
C         -1.44401       -4.85247        0.08162
C         -2.69138       -4.27433       -0.09031
H         -3.51274       -4.89140       -0.41686
C         -2.84527       -2.90806        0.02224
H         -3.80022       -2.44963       -0.18351
C         -3.43947        0.27437        0.72165
C         -4.11788       -0.41508        1.70037
H         -3.71263       -1.33739        2.08422
C         -5.30236        0.08620        2.20152
H         -5.85397       -0.44237        2.96306
C         -5.80952        1.28014        1.72772
C         -5.12135        1.96537        0.74488
H         -5.53254        2.88967        0.37146
C         -3.93794        1.46461        0.24469
H         -3.40682        1.99643       -0.52768
C         -1.73177        0.23262       -1.70556
C         -1.19037        1.50386       -1.78501
H         -0.86620        1.99282       -0.88176
C         -0.90714        2.09848       -3.01485
C         -1.39521        1.47770       -4.15814
H         -1.22430        1.93361       -5.11906
C         -1.94125        0.21224       -4.08774
H         -2.19544       -0.30332       -4.99831
C         -2.01053       -0.47989       -2.87887
C          1.44362        0.20412       -1.91267
C          0.89164       -1.06065       -1.96458
H          0.65498       -1.56255       -1.04445
C          0.47800       -1.63088       -3.16729
C          0.84271       -0.98678       -4.34294
H          0.57116       -1.42300       -5.28968
C          1.39801        0.27661       -4.30292
H          1.55592        0.81107       -5.22439
C          1.59787        0.94367       -3.09371
C         -2.04767       -1.98986       -2.94952
H         -2.72906       -2.28918       -3.75384
H         -2.51473       -2.37600       -2.04655
C         -0.63300       -2.64753       -3.16769
H         -0.42961       -3.40301       -2.40151
H         -0.60764       -3.20663       -4.10980
C          0.19632        3.11683       -3.12987
H          0.10935        3.84234       -2.31483
H          0.04401        3.71370       -4.03636
C          1.62435        2.45587       -3.14211
H          2.17773        2.77607       -4.03275
H          2.22715        2.83964       -2.32229
C          2.32991        2.41105       -0.13319
C          1.43155        3.43209        0.08627
C          3.61990        2.68287       -0.53900
C          1.78709        4.72707       -0.22441
C          3.97037        3.98043       -0.86238
C          3.03200        4.99704       -0.77210
C          3.06499       -0.30613        0.51995
C          3.72787       -1.19681       -0.29262
C          3.41673       -0.18953        1.84387
C          4.73984       -1.97762        0.22479
H          3.45353       -1.28288       -1.33122
C          4.42788       -0.96950        2.36343
H          2.89530        0.51139        2.47393
C          5.09733       -1.86620        1.55508
H          5.26017       -2.69083       -0.39467
H          4.70778       -0.90196        3.40299
Pd        -0.08168        0.51685        1.27763
Cl        -1.54786       -0.02351        2.89755
Cl         1.26020        1.77339        2.57604
H          4.93001        4.20164       -1.30318
H          4.31263        1.87214       -0.70210
H          1.06215        5.52269       -0.16351
H          0.43585        3.21399        0.43607
C         -2.37364       -7.17043       -0.35252
C         -1.14707       -6.22051       -0.47817
C         -0.71389       -5.98844       -1.95962
F         -3.35900       -6.74358       -1.15441
F         -2.00138       -8.41538       -0.68863
F         -2.78386       -7.13907        0.92409
F         -0.12334       -6.77669        0.17411
F         -1.64750       -5.25035       -2.57553
F          0.43420       -5.29784       -1.93761
F         -0.54522       -7.16528       -2.57767
C         -7.06127        3.30323        2.54910
C         -7.14015        1.78087        2.22957
C         -8.22458        1.45553        1.16265
F         -6.88786        3.99261        1.41281
F         -8.19240        3.68442        3.16241
F         -6.00957        3.49308        3.35994
F         -7.47363        1.14692        3.35712
F         -7.87640        2.01522       -0.00534
F         -8.26802        0.12132        1.02926
F         -9.41323        1.92017        1.57575
C          5.54300       -4.17521        2.35824
C          6.15507       -2.76072        2.14877
C          7.41626       -2.78546        1.23545
F          6.47378       -4.99465        2.86996
F          4.51695       -4.04467        3.21276
F          5.09465       -4.64021        1.18287
F          6.53008       -2.29717        3.34422
F          8.40510       -3.43770        1.86600
F          7.11993       -3.38855        0.07578
F          7.77410       -1.51305        1.00622
C          2.49019        5.96174       -2.95731
C          3.22430        6.23888       -1.60614
C          2.68927        7.50458       -0.87628
F          3.04311        4.86674       -3.49775
F          1.19608        5.71684       -2.71290
F          2.63321        7.01338       -3.77478
F          4.51972        6.42751       -1.86843
F          1.36331        7.40498       -0.70850
F          3.29439        7.57011        0.31919
F          2.98890        8.59038       -1.60594
