58
-89.86529023
P          1.73803        0.03422        0.69363
C          2.46994        1.68009        0.77878
C          2.48202        2.46457       -0.35162
C          3.04865        3.72453       -0.32032
C          3.60980        4.19422        0.84975
C          3.60722        3.40446        1.98211
C          3.03827        2.14406        1.94491
H          3.04230        1.52219        2.82459
H          2.06084        2.07562       -1.26322
C          2.85714       -1.10566       -0.12484
C          4.16556       -0.74426       -0.35014
C          5.02032       -1.62281       -0.99118
C          4.55625       -2.85682       -1.40266
C          3.24186       -3.21438       -1.17521
C          2.38969       -2.33420       -0.53305
H          1.35875       -2.59684       -0.35809
H          4.51041        0.22552       -0.02953
C          1.37877       -0.58440        2.38323
C          0.30510        0.25361        3.06994
C         -1.10541       -0.24017        2.80550
P         -1.61340       -0.16816        1.03217
C         -2.83720        1.13368        0.83461
C         -4.03128        1.02943        1.51201
C         -4.99010        2.01731        1.37370
C         -4.74367        3.10563        0.56048
C         -3.54177        3.20994       -0.11125
C         -2.58508        2.22098        0.02866
H         -1.64405        2.29440       -0.49166
H         -4.20949        0.17427        2.14523
C         -2.26452       -1.78045        0.56219
C         -1.44689       -2.88033        0.69604
C         -1.89980       -4.12738        0.30472
C         -3.16877       -4.26313       -0.22249
C         -3.98329       -3.15662       -0.36100
C         -3.52705       -1.91155        0.03131
H         -4.14371       -1.03712       -0.09455
H         -0.45631       -2.75929        1.10253
Pd        -0.09675        0.02418       -0.72092
Cl         1.23122        0.48402       -2.47875
Cl        -1.81496       -0.32825       -2.13352
H         -1.21277       -1.27828        3.12687
H         -1.84200        0.33752        3.36939
H          0.48391        0.27037        4.15673
H          0.39704        1.29947        2.74447
H          1.08364       -1.63250        2.31981
H          2.32693       -0.56247        2.92545
H          3.05582        4.33496       -1.20837
H          4.05011        3.76839        2.89471
H          6.04494       -1.34238       -1.17212
H          2.87810       -4.17505       -1.50089
H         -5.92735        1.93600        1.89932
H         -3.34920        4.05917       -0.74609
H         -1.26120       -4.98933        0.40744
H         -4.97001       -3.26071       -0.78150
H          4.05399        5.17589        0.87821
H          5.22029       -3.54100       -1.90531
H         -5.49042        3.87499        0.45009
H         -3.52206       -5.23344       -0.53135
