75
-122.81831373
P          1.81583       -0.56776       -0.02642
C          1.69176       -1.55487       -1.52472
C          1.63573       -0.95772       -2.76310
C          1.62987       -1.73764       -3.90448
C          1.67956       -3.11329       -3.79710
C          1.73111       -3.70951       -2.55271
C          1.73950       -2.92566       -1.41281
H          1.79723       -3.37549       -0.43408
H          1.76644       -4.78317       -2.46839
H          1.67078       -3.72288       -4.68585
H          1.58102       -1.27176       -4.87490
H          1.58709        0.11628       -2.83111
C          3.12529       -1.31791        0.95519
C          4.40697       -1.31719        0.45344
C          5.42805       -1.91201        1.17245
C          5.15510       -2.51327        2.38494
C          3.86463       -2.52737        2.87557
C          2.84607       -1.93241        2.15409
H          1.83407       -1.94122        2.52540
H          3.65029       -2.99988        3.82007
H          5.94974       -2.97569        2.94742
H          6.43338       -1.90844        0.78444
H          4.60073       -0.86308       -0.50579
C          2.20597        1.14298       -0.43612
C          3.35745        1.79338       -0.05847
C          3.52700        3.14388       -0.33081
C          2.49321        3.83598       -0.96093
C          1.32625        3.20167       -1.32484
C          1.18154        1.82830       -1.07170
O         -0.00052        1.14739       -1.40652
C         -1.19432        1.81393       -1.08576
C         -1.35457        3.18424       -1.34607
C         -2.53601        3.80340       -1.00318
C         -3.56943        3.09954       -0.38573
C         -3.38314        1.75369       -0.10145
C         -2.21604        1.11884       -0.45678
P         -1.81131       -0.57943       -0.01329
C         -3.12456       -1.30170        0.98382
C         -4.38594       -1.38082        0.43855
C         -5.41647       -1.94857        1.16604
C         -5.17314       -2.44138        2.43253
C         -3.90307       -2.37280        2.96968
C         -2.87512       -1.80499        2.23983
H         -1.87989       -1.74800        2.64957
H         -3.71220       -2.75932        3.95733
H         -5.97502       -2.88284        3.00154
H         -6.40581       -2.00791        0.74305
H         -4.55634       -1.00669       -0.55903
C         -1.67721       -1.59635       -1.48836
C         -1.67214       -1.02414       -2.73963
C         -1.65702       -1.82839       -3.86404
C         -1.64681       -3.20225       -3.72616
C         -1.64788       -3.77261       -2.46857
C         -1.66553       -2.96492       -1.34551
H         -1.68406       -3.39455       -0.35617
H         -1.63662       -4.84470       -2.36087
H         -1.63081       -3.83048       -4.60173
H         -1.64793       -1.38259       -4.84501
H         -1.67173        0.04945       -2.83074
Pd         0.00124       -0.00438        1.40044
Cl        -1.57816        0.98187        2.66970
Cl         1.63391        0.82394        2.71643
H         -4.14463        1.20947        0.42839
C         -4.81883        3.79263        0.02619
H         -4.72642        4.18377        1.04015
H         -5.67107        3.11215        0.00414
H         -5.04363        4.62762       -0.63863
H         -2.65225        4.85414       -1.20201
S         -0.01402        4.07542       -2.09299
H          2.59748        4.88911       -1.15361
C          4.75981        3.85250        0.10420
H          4.11920        1.25819        0.47984
H          4.65466        4.21679        1.12686
H          5.62598        3.19037        0.06986
H          4.97047        4.70796       -0.53885
