115
-277.94090101
P         -1.65149       -0.76531       -0.08266
P          2.03155        0.20423       -0.10033
C         -2.25577       -2.45368        0.05164
C         -1.36737       -3.48032        0.28686
H         -0.35829       -3.26468        0.59733
C         -1.75071       -4.78185        0.03951
H         -1.04111       -5.59161        0.11111
C         -3.01085       -5.05242       -0.46813
C         -3.93487       -4.02298       -0.57977
H         -4.90869       -4.23590       -0.99067
C         -3.55934       -2.72069       -0.31150
H         -4.24467       -1.90633       -0.48817
C         -2.92781        0.30278        0.62105
C         -3.25536        0.23627        1.95473
H         -2.73100       -0.44997        2.59892
C         -4.25666        1.03541        2.46425
H         -4.53541        0.98662        3.50520
C         -4.93221        1.91177        1.63900
C         -4.60264        1.97056        0.29828
H         -5.14585        2.64920       -0.34035
C         -3.60421        1.16640       -0.20983
H         -3.35665        1.20746       -1.25785
C         -1.40449       -0.33242       -1.84369
C         -0.83544        0.91958       -1.96874
H         -0.54981        1.45214       -1.08056
C         -0.47260        1.43957       -3.20989
C         -0.90546        0.76137       -4.34245
H         -0.67545        1.15982       -5.31645
C         -1.47685       -0.49027       -4.22993
H         -1.68861       -1.05417       -5.12264
C         -1.62601       -1.11083       -2.98911
C          1.78209       -0.41461       -1.80076
C          1.21910       -1.67894       -1.81629
H          0.93363       -2.13860       -0.88487
C          0.86491       -2.30234       -3.01302
C          1.30330       -1.72112       -4.19666
H          1.07626       -2.20002       -5.13447
C          1.87091       -0.46316       -4.18995
H          2.08522        0.02342       -5.12636
C          2.01119        0.26078       -3.00619
C         -1.67435       -2.62306       -2.98277
H         -2.29261       -2.96648       -3.82056
H         -2.22192       -2.96923       -2.10980
C         -0.25805       -3.30549       -3.04312
H         -0.13368       -4.01838       -2.22162
H         -0.16893       -3.91892       -3.94689
C          0.65122        2.43776       -3.30237
H          0.49316        3.22818       -2.56108
H          0.59113        2.95636       -4.26580
C          2.06492        1.76752       -3.12007
H          2.71960        2.03634       -3.95665
H          2.56941        2.17075       -2.24517
C          1.91691        1.99203        0.11802
C          0.72224        2.58788        0.46419
C          3.00877        2.76466       -0.21335
C          0.57691        3.95301        0.33261
C          2.86053        4.12911       -0.35355
C          1.62705        4.72253       -0.13802
C          3.59683       -0.40504        0.55357
C          4.07726       -1.60687        0.08697
C          4.30397        0.30216        1.49785
C          5.27428       -2.10230        0.56272
H          3.52193       -2.15082       -0.65942
C          5.49858       -0.19461        1.97588
H          3.91306        1.23396        1.87404
C          5.98921       -1.40143        1.51332
H          5.67865       -3.03270        0.19666
H          6.06785        0.35106        2.71143
Pd         0.28714       -0.59858        1.24922
Cl        -1.10457       -1.67588        2.66089
Cl         1.80560       -0.20397        2.86036
H          3.67060        4.73036       -0.73362
H          3.94962        2.29245       -0.45077
H         -0.37861        4.42887        0.49225
H         -0.11285        1.99080        0.79030
C         -4.68778       -6.75352       -1.32580
C         -3.18950       -6.34803       -1.22037
C         -2.52278       -6.12323       -2.61581
F         -5.19979       -6.74521       -0.08616
F         -5.34175       -5.86880       -2.09101
F         -4.77348       -7.98457       -1.85350
F         -2.53527       -7.33442       -0.60252
F         -1.21589       -5.91346       -2.40651
F         -2.70771       -7.20180       -3.38850
F         -3.05119       -5.02996       -3.18260
C         -5.89626        4.22874        1.74056
C         -6.05600        2.74818        2.19531
C         -7.40984        2.13048        1.74242
F         -4.64642        4.61096        2.04355
F         -6.08883        4.31434        0.41681
F         -6.78563        4.99039        2.39622
F         -6.02482        2.72912        3.53070
F         -8.42103        2.88297        2.20181
F         -7.43873        2.06365        0.40327
F         -7.47919        0.89400        2.25853
C          8.43931       -1.19613        1.15308
C          7.32970       -1.92500        1.96349
C          7.50085       -1.74536        3.50091
F          8.31686        0.12768        1.33045
F          9.64469       -1.62067        1.56075
F          8.25351       -1.49822       -0.14076
F          7.42236       -3.23087        1.69717
F          8.61224       -2.38406        3.89832
F          7.57847       -0.44012        3.79552
F          6.42342       -2.28164        4.09347
C          2.54974        7.02020       -0.68251
C          1.31189        6.07752       -0.71924
C          0.80156        5.80889       -2.16963
F          3.02281        7.02215        0.57256
F          3.49076        6.56207       -1.51964
F          2.16988        8.25808       -1.03586
F          0.32678        6.65956       -0.03104
F          0.60920        6.96981       -2.81042
F          1.69738        5.04686       -2.81187
F         -0.34848        5.12839       -2.06987
