171
-217.84342947
P         -1.60153        0.33154       -0.49839
P          1.59966       -0.36368       -0.21262
C         -0.80049        1.31244       -1.77163
C          1.04546       -1.34311       -1.61088
C          0.08349        0.71495       -2.66327
C          0.76098        1.52938       -3.59169
C          0.50256        2.88976       -3.61515
C         -0.40064        3.45744       -2.74202
C         -1.04634        2.66310       -1.81539
C          1.30934       -2.69131       -1.60821
C          0.83734       -3.49416       -2.62730
C          0.08369       -2.93762       -3.63860
C         -0.19403       -1.58054       -3.65913
C          0.31496       -0.75621       -2.63756
Cl         1.25732        0.24645        3.01044
Cl        -1.89436       -0.48323        2.66551
C         -1.00895       -1.01601       -4.76864
C          1.74727        0.95984       -4.55067
H         -0.59903        4.51617       -2.77915
H         -1.74993        3.09984       -1.12579
H          1.88941       -3.11931       -0.80710
H          1.05224       -4.55030       -2.62721
H          1.02054        3.50683       -4.32993
H         -0.29890       -3.56122       -4.42896
C         -3.76007       -3.30513       -2.09754
C         -2.77021       -3.47773       -1.13786
C         -2.11693       -2.34594       -0.66716
C         -2.43657       -1.10587       -1.16015
C         -3.40987       -0.95175       -2.11671
C         -4.10169       -2.05520       -2.60157
H         -4.28524       -4.17377       -2.44719
H         -1.35559       -2.42020        0.08994
H         -3.64109        0.03858       -2.47254
C         -4.43318        2.73664        2.10924
C         -3.09930        3.11814        2.03622
C         -2.26638        2.39748        1.19075
C         -2.74702        1.32968        0.47337
C         -4.06391        0.95451        0.57465
C         -4.93810        1.65806        1.39397
H         -5.09996        3.27963        2.75203
H         -1.22381        2.65241        1.10816
H         -4.39806        0.09120        0.02752
C          4.31596       -2.73357        2.54888
C          2.98951       -3.13011        2.41710
C          2.17972       -2.41593        1.54403
C          2.67554       -1.33901        0.85265
C          3.98346       -0.95364        1.00594
C          4.83458       -1.64618        1.85508
H          4.95782       -3.27928        3.21310
H          1.14631       -2.69030        1.41541
H          4.34315       -0.09418        0.46781
C          3.89084        3.39969       -1.21761
C          2.84293        3.47535       -0.30789
C          2.12752        2.31493       -0.04484
C          2.45196        1.14007       -0.67507
C          3.49099        1.07913       -1.57108
C          4.23793        2.21600       -1.85772
H          4.47182        4.27906       -1.42217
H          1.32821        2.31849        0.67665
H          3.72600        0.13070       -2.02368
Pd        -0.15591       -0.09065        1.29863
C         -1.25852       -4.86080        0.36685
C         -2.45876       -4.88061       -0.59919
C         -2.12109       -5.82052       -1.77174
C         -3.68882       -5.41317        0.15683
H         -1.02746       -5.86644        0.71774
H         -0.37043       -4.46816       -0.12689
H         -1.46768       -4.24733        1.24293
H         -1.85460       -6.81369       -1.41064
H         -2.96554       -5.93065       -2.45074
H         -1.27974       -5.43330       -2.34505
H         -4.55527       -5.48284       -0.50001
H         -3.49698       -6.40517        0.56537
H         -3.94800       -4.75128        0.98303
C         -4.69005       -1.17262       -4.88401
C         -5.23679       -1.85693       -3.61851
C         -6.32751       -0.97282       -2.98786
C         -5.87510       -3.19768       -4.03075
H         -4.22683       -0.21494       -4.64995
H         -3.94495       -1.80134       -5.36915
H         -5.48882       -0.98903       -5.60246
H         -6.71932       -1.43559       -2.08242
H         -5.93514        0.00873       -2.72449
H         -7.15846       -0.82532       -3.67748
H         -5.13870       -3.85835       -4.48805
H         -6.31109       -3.70612       -3.17099
H         -6.67187       -3.03889       -4.75738
C         -2.34587        5.49549        1.88201
C         -2.53806        4.30360        2.83435
C         -1.18524        3.91557        3.46558
C         -3.49026        4.72154        3.97218
H         -3.30020        5.80820        1.45863
H         -1.91002        6.34780        2.40296
H         -1.68900        5.23130        1.05489
H         -0.43228        3.71210        2.70689
H         -0.80414        4.71857        4.09614
H         -1.28978        3.02244        4.08129
H         -4.43355        5.10148        3.58102
H         -3.70264        3.87924        4.63046
H         -3.04692        5.51322        4.57608
C         -6.77882        0.06764        0.65036
C         -6.40791        1.24954        1.56612
C         -7.31762        2.44057        1.21162
C         -6.64448        0.82871        3.02784
H         -7.82726       -0.20397        0.77249
H         -6.62416        0.32771       -0.39580
H         -6.18126       -0.81396        0.88171
H         -7.13889        3.28853        1.87150
H         -7.13917        2.76913        0.18788
H         -8.36903        2.16738        1.29980
H         -5.99113       -0.00055        3.29853
H         -6.44156        1.65069        3.71336
H         -7.67580        0.51160        3.18138
C          1.10993       -3.86435        3.91216
C          2.39577       -4.31579        3.19060
C          3.37715       -4.85676        4.24815
C          2.06637       -5.44463        2.19880
H          0.34300       -3.54938        3.20612
H          0.69358       -4.67414        4.51087
H          1.31646       -3.02462        4.57529
H          2.92435       -5.67005        4.81521
H          4.28241       -5.24686        3.78355
H          3.65870       -4.07626        4.95483
H          1.62356       -6.29906        2.71028
H          1.36336       -5.10493        1.44011
H          2.96729       -5.78437        1.68826
C          6.29942        0.28204        2.50137
C          6.28832       -1.17429        1.99856
C          6.98293       -1.25217        0.62620
C          7.07541       -2.04339        2.99757
H          7.31957        0.64014        2.63836
H          5.80480        0.94948        1.79648
H          5.78109        0.36256        3.45660
H          6.97061       -2.27336        0.24581
H          6.48440       -0.61776       -0.10558
H          8.02154       -0.92918        0.69501
H          8.10343       -1.69279        3.08848
H          6.62523       -2.00564        3.98937
H          7.10949       -3.08280        2.67167
C          1.03279        5.15768        0.08201
C          2.47770        4.76718        0.43525
C          3.40695        5.93398        0.05009
C          2.59800        4.52796        1.95239
H          0.33949        4.35701        0.33286
H          0.72612        6.05356        0.62150
H          0.93935        5.35686       -0.98500
H          4.44425        5.70691        0.29558
H          3.34250        6.15143       -1.01591
H          3.13136        6.84070        0.58854
H          3.61653        4.24465        2.21691
H          2.34068        5.42726        2.51162
H          1.93615        3.72893        2.28289
C          5.63775        0.79941       -3.44418
C          5.46298        2.18064       -2.78272
C          6.72340        2.48497       -1.95184
C          5.30805        3.23838       -3.89180
H          5.80140        0.02346       -2.69670
H          4.76183        0.53091       -4.03347
H          6.49877        0.79717       -4.11242
H          7.61840        2.45110       -2.57281
H          6.66776        3.47418       -1.49872
H          6.84100        1.75701       -1.14939
H          5.25318        4.24431       -3.47780
H          6.15428        3.20901       -4.57801
H          4.40099        3.06585       -4.46945
H         -1.73533       -1.74643       -5.12559
H          2.64216        1.58036       -4.59761
H         -0.37900       -0.73504       -5.61328
H         -1.55818       -0.13076       -4.44479
H          1.32772        0.90572       -5.55608
H          2.05785       -0.04391       -4.25774
