111
-148.55685526
P         -1.67774       -2.70818        0.09361
P         -0.46595        0.13376       -0.55611
C         -1.69406       -2.09185       -1.61327
C         -1.22205       -0.82473       -1.88423
C         -0.56105       -4.17156        0.26505
C          0.63569       -3.83291        1.12835
C         -2.15112       -2.88979       -2.64234
H         -2.48555       -3.89202       -2.42960
C         -2.15621       -2.40533       -3.93905
H         -2.51693       -3.02631       -4.74272
C         -1.69451       -1.13035       -4.20548
H         -1.69419       -0.75559       -5.21578
C         -1.21627       -0.34048       -3.17537
H         -0.82373        0.64536       -3.36933
Pd        -1.28363       -0.83819        1.37453
Cl        -1.72458       -1.98897        3.24650
Cl        -0.82473        1.08156        2.45647
C         -1.48295       -5.25481        0.86093
C         -3.28129       -3.45244        0.64089
H          1.28860       -4.69828        1.26391
H          1.22867       -3.02790        0.69015
H          0.31553       -3.49954        2.11754
H         -1.31772       -5.29743        1.94626
H         -1.20065       -6.24868        0.48206
H         -3.41172       -3.13626        1.68463
C         -2.98544       -4.96184        0.58287
C         -4.45466       -2.99408       -0.19872
H         -0.25075       -4.44101       -0.75309
H         -3.25763       -5.33959       -0.41229
H         -3.62993       -5.50514        1.29087
H         -5.39282       -3.42281        0.16090
H         -4.55116       -1.90601       -0.18279
H         -4.33581       -3.29623       -1.23962
C         -0.84497        4.65763       -0.89460
C          0.42621        4.07330       -0.66320
C          0.50410        2.69451       -0.56585
C         -0.60055        1.90593       -0.75432
C         -1.81113        2.45965       -1.07922
C         -1.95747        3.83233       -1.20148
O         -1.01351        6.06295       -0.77755
C          1.70321        4.90549       -0.46846
H          1.43543        2.21547       -0.32110
H         -2.64900        1.79948       -1.22551
C         -3.31822        4.40441       -1.62897
C          3.70568       -1.52513        0.19940
C          3.14686       -0.58137        1.10175
C          1.88253       -0.08908        0.83072
C          1.21888       -0.42879       -0.31812
C          1.80155       -1.24770       -1.24892
C          3.06301       -1.78040       -1.04161
O          4.84925       -2.27503        0.57688
C          3.84473       -0.08319        2.37762
H          1.37081        0.53055        1.54768
H          1.24485       -1.49424       -2.13660
C          3.67369       -2.63007       -2.16799
C          1.64513        6.21545       -1.27490
C          1.88396        5.20972        1.02659
C          2.94196        4.12668       -0.96720
C         -4.05454        3.41662       -2.56252
C         -4.18452        4.64117       -0.38272
C         -3.14742        5.71800       -2.41373
C         -1.35698        6.49468        0.53328
H          2.57735        6.77256       -1.18493
H          1.47399        6.00855       -2.33076
H          0.84233        6.86081       -0.92773
H          1.95236        4.28663        1.60167
H          2.79261        5.78514        1.20159
H          1.04407        5.77959        1.41691
H          2.79826        3.78568       -1.99211
H          3.83015        4.75776       -0.94568
H          3.15232        3.25912       -0.34413
H         -4.95795        3.86984       -2.97005
H         -3.41889        3.12698       -3.39893
H         -4.36016        2.51422       -2.03529
H         -4.33241        3.71128        0.16587
H         -3.71638        5.35253        0.29336
H         -5.16429        5.03170       -0.65649
H         -2.70688        6.49576       -1.79499
H         -2.49752        5.56848       -3.27526
H         -4.10752        6.08766       -2.77293
H         -0.59086        7.17280        0.90866
H         -2.30399        7.03337        0.50425
H         -1.44497        5.63887        1.20390
C          4.52166       -3.46870        1.26996
C          3.72306        1.45479        2.45967
C          3.16236       -0.70705        3.60701
C          5.34607       -0.41719        2.39442
C          2.95372       -3.98790       -2.22802
C          3.48939       -1.90210       -3.51812
C          5.18461       -2.85253       -1.98155
H          4.14309        1.92106        1.56916
H          2.68660        1.77489        2.55146
H          4.25979        1.84129        3.32561
H          3.62008       -0.35035        4.52920
H          2.10371       -0.45091        3.63756
H          3.23968       -1.79240        3.59240
H          5.51084       -1.49082        2.44264
H          5.83260       -0.04469        1.49363
H          5.83836        0.03054        3.25741
H          3.06608       -4.53578       -1.29456
H          1.88721       -3.85521       -2.40778
H          3.35460       -4.60614       -3.03076
H          2.43880       -1.80621       -3.78713
H          3.91992       -0.90196       -3.47720
H          3.98128       -2.44717       -4.32338
H          5.39034       -3.45097       -1.09748
H          5.70168       -1.90041       -1.86763
H          5.61361       -3.37254       -2.83777
H          3.89203       -3.24285        2.12895
H          3.98448       -4.14935        0.61203
H          5.43877       -3.94946        1.61090
