105
-153.07252948
Cl        -0.75709        2.10913       -2.85212
Pd         0.10449        1.47871       -0.87329
P          1.35543        0.69933        0.92967
N          0.73378       -0.60669        1.92777
C          0.07066       -1.79906        1.67269
C         -0.11053       -2.34315        0.37689
C         -0.89846       -3.50194        0.21554
C         -1.08063       -4.06416       -1.17522
C         -1.69309       -5.47297       -1.22420
C         -2.84316       -5.60985       -0.22232
C         -2.34830       -5.34469        1.20727
C         -1.47783       -4.11955        1.32603
C         -1.23857       -3.60133        2.59172
C         -0.48112       -2.47197        2.76245
H         -0.33341       -2.06729        3.74864
H         -1.67529       -4.09002        3.44625
H         -3.20019       -5.24202        1.89174
H         -3.63152       -4.88980       -0.47505
H         -2.03290       -5.71563       -2.24096
H         -1.70922       -3.37015       -1.74541
C          0.67723       -1.86694       -0.78565
C          0.02444       -1.26128       -1.89365
C          0.76198       -1.03940       -3.06016
C          2.07856       -1.41099       -3.14613
C          2.71839       -2.04336       -2.08739
C          4.13270       -2.52442       -2.27661
C          4.45763       -3.74261       -1.40158
C          4.11025       -3.45201        0.06141
C          2.62871       -3.06888        0.23351
C          2.02014       -2.27353       -0.90086
H          2.03278       -3.98016        0.36423
H          4.74411       -2.63355        0.42037
H          5.51286       -4.03270       -1.50604
H          4.82095       -1.70502       -2.04288
H          2.62814       -1.22963       -4.05420
H          0.28191       -0.55420       -3.89175
N         -1.31931       -0.86529       -1.85363
P         -1.85332        0.18489       -0.53863
C         -2.76108       -0.68487        0.73562
C         -3.60519       -1.69979        0.35420
C         -4.36698       -2.35334        1.30634
C         -4.28554       -1.99073        2.64399
C         -3.44917       -0.94185        3.00293
C         -2.69018       -0.28784        2.04960
H         -2.03360        0.51862        2.32881
H         -3.39152       -0.64397        4.03589
C         -5.10491       -2.69177        3.67043
H         -5.02758       -3.15199        1.01544
H         -3.66088       -1.97672       -0.68680
C         -2.98667        1.44220       -1.14062
C         -2.99454        2.69051       -0.56443
C         -3.87197        3.65404       -1.02703
C         -4.75510        3.36863       -2.05952
C         -4.73304        2.10098       -2.62539
C         -3.85375        1.13861       -2.16245
H         -3.84359        0.15041       -2.59353
H         -5.40655        1.87299       -3.43379
C         -5.67752        4.41573       -2.57927
H         -3.87195        4.63812       -0.59034
H         -2.30975        2.91168        0.23843
H         -1.64824       -0.40542       -2.69289
H          0.95246       -0.38353        2.89122
C          1.29887        2.16565        1.96876
C          2.44829        2.77015        2.41924
C          2.36639        3.90704        3.20179
C          1.13233        4.45119        3.53163
C         -0.01745        3.82291        3.07296
C          0.06804        2.68545        2.29095
H         -0.82154        2.20654        1.91708
H         -0.98013        4.23167        3.32859
C          1.04243        5.66423        4.39072
H          3.26406        4.38235        3.55878
H          3.40667        2.35769        2.15095
C          3.07864        0.41073        0.52539
C          3.60737        0.80027       -0.68209
C          4.95324        0.61523       -0.93688
C          5.78322        0.05202        0.02279
C          5.23411       -0.32615        1.24030
C          3.88508       -0.14618        1.48974
H          3.45588       -0.43380        2.43661
H          5.86802       -0.76820        1.98994
C          7.22480       -0.18485       -0.26425
H          5.36813        0.91193       -1.88504
H          2.97016        1.26426       -1.41630
Cl         1.60283        3.16208       -0.89165
H         -1.78293       -6.21137        1.56998
H         -0.91897       -6.21421       -0.98902
H         -3.31272       -6.60086       -0.29833
H         -0.10928       -4.06264       -1.68563
H          4.36363       -4.31246        0.69648
H          2.49479       -2.50258        1.16297
H          4.30001       -2.75692       -3.33602
H          3.87605       -4.60575       -1.74922
H         -5.29907       -3.72539        3.38025
H         -4.59501       -2.71002        4.63475
H         -6.06575       -2.19347        3.80610
H         -5.96400        5.11430       -1.79188
H         -5.20315        4.98597       -3.37906
H         -6.59165        3.97325       -2.97756
H          0.98500        5.38927        5.44479
H          1.91386        6.30672        4.25710
H          0.15730        6.25370        4.14756
H          7.82629       -0.09345        0.64122
H          7.37887       -1.18521       -0.67138
H          7.60614        0.53583       -0.98895
