58
-89.86483964
P          1.68205        0.27240        0.82195
C          2.82754        1.63593        0.60404
C          4.14765        1.39111        0.30274
C          5.02039        2.45009        0.12919
C          4.56242        3.74661        0.25824
C          3.23629        3.98680        0.56009
C          2.36567        2.92548        0.73392
H          1.32502        3.09643        0.96152
H          4.48837        0.37356        0.19955
C          2.41172       -1.26691        0.24464
C          2.73370       -2.28996        1.10796
C          3.25621       -3.46926        0.60874
C          3.45632       -3.61547       -0.74990
C          3.13930       -2.58454       -1.61167
C          2.61611       -1.40790       -1.10920
H          2.35380       -0.59228       -1.76468
H          2.57585       -2.16901        2.16685
C          1.27825        0.22268        2.61560
C          0.11842       -0.68362        2.99571
C         -1.24583       -0.10530        2.65682
P         -1.69856       -0.15925        0.87633
C         -3.24027        0.75402        0.69760
C         -4.32303        0.38460        1.46488
C         -5.51367        1.08170        1.36052
C         -5.61152        2.15028        0.49189
C         -4.52254        2.52333       -0.27016
C         -3.33460        1.82339       -0.16416
H         -2.48271        2.10208       -0.76211
H         -4.23359       -0.44634        2.14679
C         -1.86405       -1.86971        0.34414
C         -0.72208       -2.62234        0.19420
C         -0.80819       -3.93747       -0.22235
C         -2.04386       -4.49228       -0.48886
C         -3.18862       -3.73293       -0.34542
C         -3.09660       -2.41702        0.07046
H         -3.98153       -1.81114        0.16929
H          0.23805       -2.16916        0.37058
Pd        -0.08711        0.50408       -0.65598
Cl         1.31972        1.55757       -2.06140
Cl        -1.65470        0.29838       -2.25335
H         -2.04047       -0.64627        3.17633
H         -1.31372        0.93631        2.97636
H          0.23542       -1.66502        2.52035
H          0.16230       -0.88480        4.07756
H          2.20157       -0.07458        3.11877
H          1.07538        1.24935        2.92637
H          6.05436        2.26275       -0.10970
H          2.87802        4.99855        0.65606
H          3.50579       -4.27406        1.28059
H          3.29465       -2.69618       -2.67211
H         -6.36225        0.79120        1.95789
H         -4.59795        3.35590       -0.95022
H          0.08870       -4.52183       -0.34607
H         -4.15277       -4.16301       -0.56165
H          5.24068        4.57282        0.12018
H          3.86216       -4.53541       -1.13813
H         -6.53861        2.69375        0.40873
H         -2.11461       -5.51682       -0.81596
