87
-129.18916293
P         -1.60121       -0.32314       -0.28071
P          1.63905        0.36789       -0.03831
C         -1.30440        0.97055       -1.49636
C          1.46526       -0.67626       -1.49728
C         -0.28567        0.84868       -2.43549
C         -0.05133        1.91634       -3.32444
C         -0.85236        3.04360       -3.25484
C         -1.86455        3.14039       -2.32440
C         -2.08398        2.10046       -1.44303
C          2.23643       -1.81182       -1.55993
C          2.10604       -2.68731       -2.61958
C          1.18776       -2.42341       -3.61247
C          0.39555       -1.28893       -3.56871
C          0.54262       -0.38544       -2.49792
Cl         1.18406        0.50723        3.19769
Cl        -1.45020       -1.28124        2.84598
H         -2.47646        4.02635       -2.27905
H         -2.86907        2.17166       -0.70885
H          2.94533       -2.01764       -0.77540
H          2.71285       -3.57680       -2.66456
H         -0.67018        3.85586       -3.93792
H          1.07285       -3.10871       -4.43512
C         -1.71942       -4.44983       -2.17283
C         -0.90073       -4.22992       -1.07358
C         -0.88909       -2.96495       -0.49895
C         -1.67408       -1.95823       -1.01130
C         -2.49173       -2.18652       -2.09295
C         -2.51587       -3.43987       -2.67625
H         -1.72551       -5.42231       -2.63486
C         -0.01288       -5.30356       -0.55110
H         -0.25419       -2.76843        0.34835
H         -3.09246       -1.38046       -2.48431
H         -3.14856       -3.62477       -3.52883
C         -5.36357        0.60299        2.11507
C         -5.34420       -0.48259        1.26175
C         -4.20643       -0.76381        0.52927
C         -3.09863        0.04105        0.65463
C         -3.11470        1.12138        1.50692
C         -4.25198        1.42385        2.24551
H         -6.24519        0.81809        2.69452
H         -6.21269       -1.11424        1.17126
H         -4.17379       -1.61409       -0.13186
H         -2.23373        1.73297        1.61119
C         -4.25139        2.57247        3.19156
C          5.33228       -0.84706        2.33568
C          5.30994        0.36399        1.67257
C          4.18957        0.73621        0.95394
C          3.10350       -0.10556        0.89909
C          3.12276       -1.31159        1.56159
C          4.23633       -1.69790        2.29724
H          6.20455       -1.13984        2.89486
H          6.16385        1.01999        1.71682
H          4.15550        1.68229        0.43929
H          2.26137       -1.95788        1.52055
C          4.25384       -3.00917        3.00083
C          1.58101        4.80548       -1.00623
C          2.45706        3.96955       -1.67081
C          2.48647        2.62045       -1.36953
C          1.64152        2.12285       -0.40565
C          0.77925        2.95517        0.26986
C          0.73529        4.31274       -0.02183
H          1.54550        5.85340       -1.25080
H          3.11028        4.36567       -2.43090
H          3.14997        1.94941       -1.89215
H          0.12894        2.55022        1.02634
C         -0.23750        5.20009        0.67122
Pd        -0.05486       -0.19564        1.46051
C          1.04041        1.86211       -4.33612
C         -0.59550       -1.05367       -4.65547
H          1.74685        1.05996       -4.12009
H          0.63648        1.69663       -5.33561
H          1.60153        2.79748       -4.35238
H         -1.13728       -1.97048       -4.89204
H         -1.33251       -0.30263       -4.36923
H         -0.10106       -0.71253       -5.56576
H          0.95865       -5.27662       -1.04659
H          0.15341       -5.18796        0.52095
H         -0.44849       -6.29019       -0.71482
H         -3.64612        3.39548        2.80846
H         -5.26135        2.95113        3.35480
H         -3.84170        2.27544        4.15796
H          4.50681       -3.81583        2.31136
H          4.98559       -3.01466        3.80979
H          3.27817       -3.23083        3.43590
H         -1.19863        5.19703        0.15505
H         -0.40637        4.87046        1.69746
H          0.12298        6.22901        0.70807
