58
-89.86600681
P          1.68873        0.17731        0.79573
C          2.86965        1.52339        0.67783
C          4.17123        1.27403        0.30756
C          5.07106        2.32031        0.21348
C          4.65874        3.60885        0.49094
C          3.35124        3.85367        0.86220
C          2.45352        2.80499        0.95640
H          1.42669        2.98075        1.23693
H          4.47642        0.26343        0.08916
C          2.33256       -1.30602        0.01032
C          2.59791       -2.45275        0.72460
C          3.05253       -3.58060        0.06550
C          3.23896       -3.55277       -1.30267
C          2.97527       -2.39965       -2.01470
C          2.52081       -1.27425       -1.35296
H          2.29708       -0.36582       -1.89054
H          2.44360       -2.46918        1.79067
C          1.36040       -0.05830        2.59071
C          0.11756       -0.86684        2.92139
C         -1.18144       -0.13642        2.61125
P         -1.65708       -0.26522        0.84351
C         -3.21271        0.60279        0.58587
C         -4.21143        0.04017       -0.17598
C         -5.38843        0.73318       -0.39282
C         -5.55559        1.99134        0.15045
C         -4.54692        2.55925        0.90304
C         -3.37022        1.86338        1.11689
H         -2.56852        2.30537        1.68685
H         -4.05875       -0.93018       -0.61931
C         -1.78641       -2.01751        0.46090
C         -0.74584       -2.65256       -0.17625
C         -0.81794       -4.00789       -0.43776
C         -1.93329       -4.72312       -0.05027
C         -2.96890       -4.08749        0.60612
C         -2.89073       -2.73122        0.86839
H         -3.68321       -2.22725        1.39854
H          0.13287       -2.09338       -0.44605
Pd        -0.08871        0.65922       -0.60709
Cl         1.27035        1.85058       -1.94275
Cl        -1.83406        0.91454       -2.00537
H         -2.02064       -0.55770        3.17048
H         -1.11339        0.91810        2.88256
H          0.13887       -1.82341        2.38228
H          0.13817       -1.13577        3.98926
H          2.26108       -0.51410        3.00859
H          1.28874        0.93879        3.02973
H          6.09053        2.12968       -0.07908
H          3.02832        4.85968        1.07407
H          3.25757       -4.48170        0.61986
H          3.11872       -2.37633       -3.08241
H         -6.16964        0.29427       -0.99145
H         -4.67251        3.54560        1.31857
H         -0.00091       -4.50320       -0.93607
H         -3.83554       -4.64711        0.91766
H          5.35807        4.42548        0.41493
H          3.59110       -4.43287       -1.81566
H         -6.47113        2.53402       -0.01986
H         -1.99262       -5.77986       -0.25392
