111
-148.55564568
P         -2.15051       -2.31297       -1.32854
P          0.03367       -0.13683       -0.60941
C         -1.16633       -1.55950       -2.64711
C         -0.22696       -0.60252       -2.33097
C         -2.00371       -4.15593       -1.35888
C         -1.09241       -4.64662       -0.25512
C         -1.34693       -1.94356       -3.96018
H         -2.06962       -2.70785       -4.19611
C         -0.59496       -1.35057       -4.95965
H         -0.73656       -1.64682       -5.98620
C          0.33638       -0.38028       -4.64252
H          0.92086        0.08259       -5.42055
C          0.52294       -0.00697       -3.32332
H          1.24897        0.74576       -3.06034
Pd        -1.53527       -1.28982        0.64731
Cl        -3.09897       -2.56361        1.63025
Cl        -0.77708       -0.25816        2.48666
C         -3.46605       -4.62214       -1.24111
C         -3.98217       -2.13184       -1.54575
H         -1.47249       -4.34609        0.72297
H         -1.01165       -5.73615       -0.25786
H         -0.08721       -4.23136       -0.35921
H         -3.69928       -4.78392       -0.17966
H         -3.59725       -5.60161       -1.72570
H         -4.36185       -1.79436       -0.57199
C         -4.44874       -3.57176       -1.83144
C         -4.33015       -1.13316       -2.62848
H         -1.59670       -4.41528       -2.34512
H         -4.52284       -3.71094       -2.91862
H         -5.46735       -3.72724       -1.44498
H         -5.41051       -0.99458       -2.71277
H         -3.87660       -0.16107       -2.42800
H         -3.96564       -1.46743       -3.60070
C         -1.03783        4.21706        0.19634
C         -1.92297        3.39851       -0.55175
C         -1.54723        2.09011       -0.81393
C         -0.38485        1.57575       -0.30068
C          0.41402        2.32857        0.51933
C          0.10313        3.64468        0.81290
O         -1.27913        5.61236        0.31003
C         -3.27107        3.91474       -1.07975
H         -2.16167        1.44921       -1.42238
H          1.28961        1.86659        0.93966
C          1.00947        4.43055        1.77325
C          4.19426       -1.05555        1.00914
C          4.02401       -0.01951        0.05576
C          2.74792        0.22970       -0.42225
C          1.68411       -0.54657       -0.04066
C          1.86668       -1.62136        0.79027
C          3.11482       -1.92542        1.30668
O          5.43087       -1.19546        1.69374
C          5.18877        0.85876       -0.42753
H          2.56287        1.05811       -1.08384
H          1.00880       -2.21179        1.05914
C          3.26163       -3.15067        2.22230
C         -4.29373        2.76108       -1.18454
C         -3.87503        4.96157       -0.12571
C         -3.07391        4.52067       -2.47741
C          0.19274        5.44348        2.59561
C          1.69520        3.47874        2.78075
C          2.09811        5.15548        0.96763
C         -0.69381        6.39179       -0.72524
H         -5.28750        3.14340       -1.41663
H         -4.02758        2.06429       -1.97693
H         -4.35709        2.21051       -0.24618
H         -3.97601        4.55139        0.87856
H         -3.24978        5.84859       -0.06198
H         -4.86139        5.27783       -0.46409
H         -2.67597        3.77644       -3.16692
H         -4.01808        4.88486       -2.88161
H         -2.37589        5.35375       -2.45185
H          0.82273        5.95942        3.31973
H         -0.26122        6.19783        1.95763
H         -0.60664        4.94013        3.13840
H          2.42402        2.83230        2.29399
H          2.22958        4.04328        3.54443
H          0.95968        2.85019        3.28217
H          2.77593        5.69769        1.62643
H          2.68613        4.44453        0.38808
H          1.66456        5.86916        0.27161
H         -0.14471        5.75371       -1.41880
H         -1.47384        6.92929       -1.26404
H         -0.01567        7.12572       -0.29022
C          5.51406       -0.44324        2.89802
C          6.50732        0.06458       -0.45632
C          4.93359        1.35928       -1.86750
C          5.32439        2.07846        0.49662
C          2.97627       -2.73307        3.67308
C          2.25643       -4.25506        1.82264
C          4.66864       -3.76494        2.11058
H          7.31986        0.66838       -0.85965
H          6.79979       -0.25576        0.54050
H          6.40558       -0.82532       -1.07656
H          5.81168        1.87166       -2.26004
H          4.70676        0.52657       -2.53279
H          4.10680        2.06690       -1.90810
H          6.13706        2.72716        0.17074
H          4.40557        2.66360        0.49782
H          5.52545        1.77750        1.52177
H          1.97006       -2.32446        3.76443
H          3.05798       -3.58441        4.34824
H          3.67382       -1.96944        4.00842
H          2.44525       -5.17079        2.38240
H          1.22915       -3.96071        2.03209
H          2.33930       -4.48875        0.76158
H          5.43324       -3.07236        2.45296
H          4.89256       -4.02463        1.07647
H          4.75029       -4.66933        2.71297
H          4.59545        0.12301        3.05734
H          5.67676       -1.11595        3.73986
H          6.35957        0.24229        2.84305
