45
-71.81550931
C          0.64442        1.64821        2.92666
P         -0.10457        0.70813        1.55402
P         -0.15190        0.86701       -1.59174
C          0.51120        1.85323       -2.97695
Cl         2.93685       -0.36875        1.52306
H          1.46490        1.08030        3.35602
H          0.90604        2.79295       -2.60148
Cl         3.10414        0.14149       -1.63632
C         -1.36995        1.69731        0.73075
C         -1.38781        1.77145       -0.64439
C         -2.36743        2.49769       -1.28961
C         -3.32725        3.16446       -0.54846
C         -3.30568        3.09673        0.83119
C         -2.32606        2.35995        1.47339
H         -2.38006        2.53275       -2.36700
H         -4.09313        3.73404       -1.04867
H         -4.05376        3.61489        1.40834
H         -2.30341        2.29443        2.54925
Pd         1.50379        0.30804       -0.07426
H         -0.27203        2.06230       -3.69992
H         -0.09595        1.83606        3.69884
H          1.31190        1.30780       -3.46835
C         -1.88918       -3.17074       -2.75155
C         -1.88149       -2.75019       -1.43647
C         -1.34892       -1.51537       -1.11622
C         -0.82876       -0.71260       -2.10365
C         -0.83214       -1.12699       -3.41596
C         -1.36541       -2.36147       -3.74129
H         -2.30237       -4.13311       -3.00594
H         -2.28382       -3.38045       -0.66055
H         -1.32210       -1.17449       -0.09607
H         -0.41702       -0.48919       -4.17898
H         -1.36967       -2.69206       -4.76698
C         -1.73026       -3.31651        2.90402
C         -0.37020       -3.13082        2.75228
C          0.11421       -1.89739        2.35885
C         -0.75905       -0.86121        2.12259
C         -2.11527       -1.04064        2.27344
C         -2.60400       -2.27356        2.66574
H         -2.11081       -4.27782        3.20846
H          0.31207       -3.94460        2.93515
H          1.17061       -1.73243        2.21906
H         -2.78581       -0.22152        2.07112
H         -3.66530       -2.42012        2.78169
H          1.02533        2.59722        2.56026
