105
-153.06961233
Cl        -0.70076        1.97962       -2.96432
Pd         0.10849        1.48559       -0.92297
P          1.27665        0.67161        0.93251
N          0.70945       -0.67481        1.90983
C          0.02194       -1.85230        1.64673
C         -0.14751       -2.39101        0.34868
C         -0.92769       -3.55383        0.17834
C         -1.09114       -4.11690       -1.21463
C         -1.71212       -5.52182       -1.27437
C         -2.86870       -5.65809       -0.27982
C         -2.37873       -5.40388        1.15319
C         -1.51613       -4.17451        1.28269
C         -1.29651       -3.65387        2.55108
C         -0.54332       -2.52329        2.73042
H         -0.40648       -2.11763        3.71777
H         -1.74255       -4.14319        3.40041
H         -3.23231       -5.31321        1.83727
H         -3.65163       -4.93173       -0.53174
H         -2.04759       -5.75701       -2.29431
H         -1.70556       -3.41936       -1.79585
C          0.64620       -1.90446       -0.80606
C         -0.01007       -1.31929       -1.92247
C          0.71964       -1.12902       -3.09912
C          2.03429       -1.50757       -3.18467
C          2.68553       -2.10137       -2.11042
C          4.10320       -2.57700       -2.30243
C          4.51497       -3.66866       -1.30430
C          4.14502       -3.25845        0.12367
C          2.63558       -2.99828        0.26172
C          1.99689       -2.28893       -0.91031
H          2.11215       -3.94980        0.41332
H          4.69690       -2.34933        0.38865
H          5.58955       -3.88714       -1.38259
H          4.78029       -1.72062       -2.21498
H          2.57663       -1.35516       -4.10241
H          0.23489       -0.66432       -3.93962
N         -1.34857       -0.90813       -1.87461
P         -1.83780        0.18500       -0.57803
C         -2.72629       -0.60737        0.75367
C         -3.51745       -1.69822        0.48796
C         -4.24928       -2.27683        1.50930
C         -4.18973       -1.76292        2.79810
C         -3.41259       -0.63619        3.03478
C         -2.68679       -0.05515        2.01054
H         -2.10247        0.83429        2.17684
H         -3.38013       -0.21594        4.02541
C         -4.97607       -2.38623        3.89780
H         -4.86686       -3.13618        1.31183
H         -3.55366       -2.09240       -0.51507
C         -2.94769        1.46297       -1.18192
C         -2.93301        2.70422       -0.59035
C         -3.78846        3.69083       -1.04584
C         -4.66350        3.43865       -2.09383
C         -4.67834        2.17142       -2.66114
C         -3.82119        1.18592       -2.20566
H         -3.83596        0.19989       -2.64122
H         -5.36525        1.96119       -3.46305
C         -5.59845        4.49478       -2.57117
H         -3.77981        4.66573       -0.58913
H         -2.25183        2.89782        0.22370
H         -1.68391       -0.46489       -2.72006
H          1.02045       -0.51416        2.86034
C          1.20655        2.10763        2.01690
C          2.06638        3.16593        1.84301
C          1.99369        4.26135        2.68354
C          1.05491        4.30753        3.70496
C          0.20650        3.22272        3.87844
C          0.28393        2.12842        3.03615
H         -0.35744        1.27696        3.18702
H         -0.51238        3.23813        4.67981
C          0.99024        5.47769        4.62369
H          2.66623        5.09106        2.54790
H          2.78870        3.13511        1.04369
C          3.01528        0.44160        0.55546
C          3.51805        0.62764       -0.71010
C          4.87579        0.50455       -0.93729
C          5.74101        0.18989        0.10119
C          5.21544       -0.00045        1.37188
C          3.85653        0.13188        1.59809
H          3.44719       -0.00002        2.58752
H          5.87606       -0.25339        2.18345
C          7.19699        0.01238       -0.15389
H          5.27254        0.65534       -1.92678
H          2.84783        0.87266       -1.51778
Cl         1.75368        2.99945       -1.15288
H         -1.80822       -6.27021        1.50864
H         -0.94388       -6.26911       -1.03906
H         -3.34353       -6.64594       -0.36392
H         -0.11122       -4.12183       -1.70841
H          4.47589       -4.01995        0.84383
H          2.44166       -2.41207        1.16825
H          4.22218       -2.93911       -3.33170
H          4.00300       -4.60562       -1.55747
H         -4.48103       -2.25126        4.86054
H         -5.96990       -1.94151        3.96415
H         -5.09636       -3.45843        3.73603
H         -6.53529        4.46410       -2.01322
H         -5.16519        5.48833       -2.44803
H         -5.83163        4.36518       -3.62892
H          1.66527        5.34350        5.47002
H          1.27324        6.39732        4.10963
H         -0.01836        5.61543        5.01590
H          7.53689        0.66242       -0.96132
H          7.78472        0.25186        0.73335
H          7.41728       -1.01821       -0.43597
