75
-122.81190518
P          1.92518       -0.52856        0.17631
C          1.63037       -1.58793       -1.24337
C          1.91894       -1.14457       -2.51364
C          1.80555       -2.01118       -3.58511
C          1.40898       -3.31700       -3.37387
C          1.12163       -3.75708       -2.09687
C          1.23707       -2.88858       -1.02626
H          1.03798       -3.22176       -0.01960
H          0.80906       -4.77521       -1.93317
H          1.31629       -3.99236       -4.20864
H          2.02530       -1.66682       -4.58221
H          2.23557       -0.12459       -2.65970
C          3.37519       -1.21622        1.00577
C          4.33039       -1.82510        0.22232
C          5.46248       -2.36594        0.80500
C          5.63375       -2.29162        2.17273
C          4.67923       -1.67407        2.95542
C          3.55222       -1.13384        2.36703
H          2.81761       -0.62414        2.96454
H          4.81498       -1.60695        4.02241
H          6.51476       -2.71261        2.62914
H          6.20793       -2.84478        0.19158
H          4.18461       -1.87748       -0.84497
C          2.27769        1.15747       -0.33371
C          3.44032        1.80531        0.01164
C          3.62090        3.14491       -0.30410
C          2.58426        3.82650       -0.94061
C          1.40970        3.19079       -1.27818
C          1.25618        1.82467       -0.99336
O          0.07796        1.13661       -1.32706
C         -1.12737        1.80576       -1.05748
C         -1.27414        3.17747       -1.31749
C         -2.45862        3.80338       -0.99859
C         -3.51466        3.10195       -0.41842
C         -3.35244        1.74883       -0.15696
C         -2.18130        1.10723       -0.48590
P         -1.82832       -0.62260       -0.11540
C         -3.14319       -1.37055        0.86225
C         -2.85919       -2.02265        2.04004
C         -3.87875       -2.61742        2.76032
C         -5.17543       -2.56627        2.28906
C         -5.45360       -1.92863        1.09661
C         -4.43159       -1.33389        0.37905
H         -4.63013       -0.85619       -0.56759
H         -6.46379       -1.89702        0.72274
H         -5.97080       -3.02857        2.85062
H         -3.66023       -3.11881        3.68884
H         -1.84228       -2.06213        2.39564
C         -1.76773       -1.54226       -1.66496
C         -1.39389       -0.92136       -2.83457
C         -1.43846       -1.61295       -4.03047
C         -1.85144       -2.93015       -4.04689
C         -2.21627       -3.55530       -2.87110
C         -2.17652       -2.85676       -1.67783
H         -2.47518       -3.32811       -0.75516
H         -2.53563       -4.58440       -2.88238
H         -1.88211       -3.47303       -4.97743
H         -1.14232       -1.12661       -4.94531
H         -1.04963        0.09825       -2.80342
Pd        -0.07070       -0.04425        1.38059
Cl        -1.76049        0.77449        2.64053
Cl         1.37364        0.92035        2.81867
H         -4.13813        1.20488        0.33575
C         -4.76917        3.80005       -0.03079
H         -4.94423        4.67467       -0.65856
H         -4.72008        4.13358        1.00650
H         -5.63233        3.14083       -0.13211
H         -2.56180        4.85639       -1.19281
S          0.07527        4.06548       -2.05101
H          2.69358        4.87343       -1.16243
C          4.86598        3.85422        0.09291
H          4.20426        1.27187        0.55051
H          5.72494        3.18228        0.06960
H          5.07728        4.68609       -0.58019
H          4.77736        4.25267        1.10434
