100
-131.97186323
C         -3.11836       -2.83034       -1.33174
C         -1.94125       -3.39320       -0.66349
C         -2.79713       -1.51861       -1.76780
C         -1.38467       -1.20807       -1.40117
C         -0.56965       -0.34032       -2.31292
C         -0.87471       -2.43789       -0.70283
C          0.55224       -2.83398       -0.36377
C          1.09775       -3.84255       -1.35239
Cl        -0.57086        1.34915        2.62119
Cl         0.46275       -1.70662        2.60803
C          0.68577        1.23260       -4.27081
C          0.22403       -0.02921       -4.59241
C          0.53056        1.71168       -2.97793
C         -0.39893       -0.79571       -3.63895
C         -0.06064        0.94098       -2.00666
H         -1.85697       -4.41153       -0.27885
H         -3.43136       -0.89203       -2.39899
H          1.18005       -3.39809       -2.34597
H          2.08202       -4.20930       -1.05334
H          0.43747       -4.70866       -1.44108
H          1.16201        1.84319       -5.02026
H          0.34173       -0.40590       -5.59556
H          0.86720        2.70738       -2.73491
H         -0.78180       -1.76829       -3.89691
H         -4.06087       -3.35264       -1.51470
P         -0.16914        1.69602       -0.37907
H          0.51837       -3.29173        0.63442
P          1.76161       -1.43769       -0.13061
H          1.73364       -0.76688       -2.40898
C          3.60583       -1.83699       -2.35324
C          2.55559       -0.91071       -1.71198
C          3.54764       -1.73203       -3.88124
H          3.60066       -2.80293        0.51851
C          4.02476       -0.94858        1.56514
C          3.05513       -2.01805        1.04489
H          4.30631       -0.30812        0.71055
C          3.39423       -0.05645        2.63752
H          0.97595        3.77877       -0.76396
H         -2.04457        2.57722        0.83482
C         -4.25650        2.46599       -0.91528
C         -2.87883        1.78212       -1.00245
C         -1.80508        2.56375       -0.23539
C         -1.72886        4.00806       -0.75625
C         -3.10075        4.70960       -0.68046
C         -4.17742        3.91133       -1.43892
H         -4.59322        2.47553        0.12862
H         -5.01417        1.88882       -1.46374
H         -2.57362        1.71001       -2.05403
H         -2.92343        0.74854       -0.64293
H         -0.97553        4.58171       -0.20128
H         -1.37857        3.98814       -1.79554
H         -3.39729        4.80918        0.37116
H         -3.03388        5.73711       -1.06482
H         -3.93304        3.89719       -2.50859
H         -5.15578        4.40739       -1.36723
C          3.68886        3.40881       -0.15373
C          2.57039        2.38010       -0.41787
C          1.18370        2.94534       -0.08251
C          1.14791        3.46459        1.36191
C          2.24232        4.51942        1.60841
C          3.63254        3.93838        1.29122
H          3.58223        4.24765       -0.85278
H          4.67420        2.97156       -0.36872
H          2.74126        1.48270        0.18584
H          2.59818        2.05063       -1.46375
H          0.15125        3.85039        1.61478
H          1.30903        2.61924        2.04042
H          2.05662        5.39078        0.96828
H          2.19851        4.89575        2.64005
H          3.85075        3.11854        1.98698
H          4.41815        4.68743        1.46465
H          3.36266       -2.87507       -2.07473
C          5.02085       -1.53527       -1.85588
H          2.56048       -2.50801        1.88345
C          5.29706       -1.60171        2.11741
H          2.99709        0.06983       -1.55300
H          4.27672       -2.38995       -4.35668
H          3.76361       -0.71273       -4.20316
H          2.56039       -1.99476       -4.26474
H          5.29266       -0.50121       -2.07069
H          5.11716       -1.68544       -0.78270
H          5.75821       -2.17504       -2.34352
H          2.55376        0.51812        2.25524
H          3.02779       -0.65657        3.47073
H          4.11827        0.65426        3.03893
H          6.01684       -0.85392        2.45405
H          5.05945       -2.23668        2.97150
H          5.78979       -2.22803        1.37253
Fe        -2.58782       -1.67835        0.26873
C         -2.96523       -2.51474        2.13283
C         -4.15761       -2.50416        1.30635
C         -4.46267       -1.12697        0.96169
C         -3.45547       -0.28564        1.57603
C         -2.53494       -1.14193        2.29246
H         -2.48337       -3.39434        2.56548
H         -4.74759       -3.38006        1.02581
H         -5.31603       -0.78343        0.37243
H         -3.43862        0.80523        1.58237
H         -1.67709       -0.80180        2.87142
Pd         0.35508       -0.03145        1.09423
