105
-153.07003136
Cl        -0.95556        2.09304       -2.86085
Pd         0.04399        1.54192       -0.91327
P          1.37872        0.74338        0.82164
N          0.56493       -0.43702        1.83439
C          0.01221       -1.69151        1.62095
C         -0.09407       -2.30796        0.35031
C         -0.78171       -3.53244        0.22682
C         -0.89698       -4.15995       -1.14311
C         -1.38665       -5.61680       -1.14097
C         -2.54046       -5.80943       -0.15245
C         -2.09936       -5.44268        1.27248
C         -1.33604       -4.14507        1.35232
C         -1.17736       -3.54786        2.59564
C         -0.52020       -2.35234        2.72780
H         -0.43605       -1.88969        3.69583
H         -1.59816       -4.02871        3.46252
H         -2.97116       -5.38256        1.93665
H         -3.38207       -5.17128       -0.44957
H         -1.68463       -5.92993       -2.15156
H         -1.57431       -3.54424       -1.74654
C          0.64196       -1.80354       -0.83369
C         -0.06196       -1.18086       -1.90082
C          0.62493       -0.92811       -3.09193
C          1.94308       -1.27631       -3.23507
C          2.63266       -1.92119       -2.21549
C          4.05112       -2.36112       -2.46322
C          4.43620       -3.59320       -1.63247
C          4.12234       -3.35592       -0.15224
C          2.63568       -3.02470        0.07176
C          1.98181       -2.19518       -1.01145
H          2.06952       -3.95856        0.17113
H          4.73959       -2.52780        0.21215
H          5.49616       -3.84805       -1.77414
H          4.72516       -1.52919       -2.23064
H          2.45585       -1.06302       -4.15758
H          0.10780       -0.42744       -3.89143
N         -1.40198       -0.78850       -1.78816
P         -1.86796        0.20510       -0.40240
C         -2.82226       -0.74815        0.77761
C         -3.52208       -1.83596        0.31484
C         -4.31332       -2.56474        1.18443
C         -4.40514       -2.20400        2.52184
C         -3.71554       -1.08138        2.96123
C         -2.92882       -0.35113        2.08902
H         -2.39800        0.52386        2.42558
H         -3.79746       -0.78344        3.99254
C         -5.25641       -2.98528        3.46067
H         -4.86113       -3.42068        0.82948
H         -3.43946       -2.11109       -0.72457
C         -2.98449        1.52650       -0.88817
C         -2.91415        2.73694       -0.23931
C         -3.77657        3.75695       -0.59730
C         -4.71380        3.56869       -1.60426
C         -4.78273        2.33104       -2.23005
C         -3.91887        1.31178       -1.87201
H         -3.97361        0.34865       -2.35331
H         -5.51717        2.17060       -3.00072
C         -5.65666        4.65962       -1.97609
H         -3.72526        4.70810       -0.09551
H         -2.18423        2.88095        0.54198
H         -1.77882       -0.31060       -2.59665
H          0.72910       -0.16296        2.79539
C          1.32367        2.28453        1.74420
C          2.38517        3.15763        1.73237
C          2.29256        4.35890        2.41092
C          1.13653        4.69260        3.10441
C          0.06961        3.80410        3.09109
C          0.16564        2.60234        2.41326
H         -0.66032        1.91044        2.39531
H         -0.83785        4.06079        3.61051
C          1.02527        6.00004        3.80849
H          3.11785        5.05016        2.39912
H          3.27619        2.90242        1.18219
C          3.11633        0.30569        0.71489
C          3.87837        0.63318       -0.38068
C          5.23013        0.34760       -0.39344
C          5.83249       -0.26473        0.69665
C          5.05435       -0.56454        1.80686
C          3.69991       -0.28065        1.81334
H          3.09382       -0.50848        2.67562
H          5.51430       -1.02314        2.66542
C          7.29170       -0.56017        0.68701
H          5.82976        0.60974       -1.24839
H          3.41800        1.14212       -1.20956
Cl         1.87882        2.63838       -1.61922
H         -1.47194       -6.24269        1.68318
H         -0.55715       -6.27853       -0.86155
H         -2.92229       -6.83945       -0.19269
H          0.07658       -4.09555       -1.64493
H          4.42067       -4.22533        0.45026
H          2.50494       -2.50841        1.03031
H          4.18863       -2.56174       -3.53339
H          3.87099       -4.46348       -1.98918
H         -6.26320       -2.56831        3.50956
H         -5.33773       -4.02639        3.14497
H         -4.83865       -2.97768        4.46843
H         -6.56866        4.60348       -1.38023
H         -5.20758        5.64036       -1.81328
H         -5.93696        4.59547       -3.02839
H          0.36261        5.92721        4.67202
H          1.99856        6.33884        4.16624
H          0.62651        6.76573        3.14169
H          7.86501        0.30827        1.01411
H          7.53043       -1.39146        1.35191
H          7.63046       -0.83034       -0.31424
