111
-148.55414005
P         -2.47192       -2.18562       -0.57448
P          0.04989       -0.28500       -0.68268
C         -1.69893       -1.81281       -2.16862
C         -0.60882       -0.97137       -2.21435
C         -2.71246       -4.00692       -0.35243
C         -1.92508       -4.50788        0.83901
C         -2.19078       -2.36963       -3.33191
H         -3.02788       -3.04675       -3.28558
C         -1.60045       -2.06332       -4.54562
H         -1.98560       -2.49491       -5.45503
C         -0.51881       -1.20522       -4.59177
H         -0.05988       -0.96434       -5.53655
C         -0.02024       -0.65990       -3.42225
H          0.82610        0.00697       -3.44516
Pd        -1.22508       -1.14237        1.06104
Cl        -2.74863       -1.73120        2.59802
Cl         0.09518       -0.09536        2.54378
C         -4.24238       -4.15387       -0.20217
C         -4.22184       -1.60324       -0.41382
H         -2.26194       -4.01902        1.75486
H         -2.04682       -5.58501        0.97631
H         -0.85807       -4.29936        0.72745
H         -4.46328       -4.94946        0.52394
H         -4.68117       -4.49309       -1.15189
H         -4.20631       -0.74200        0.26808
C         -4.91712       -2.82046        0.22873
C         -4.80753       -1.21669       -1.75603
H         -2.35649       -4.48539       -1.27499
H         -5.98438       -2.81990       -0.03766
H         -4.88248       -2.73268        1.32471
H         -5.80746       -0.78917       -1.64995
H         -4.17794       -0.48976       -2.27322
H         -4.89471       -2.09072       -2.40335
C         -1.18672        4.00879        0.16611
C          0.18643        3.65785        0.21714
C          0.53783        2.34741       -0.05803
C         -0.40074        1.43176       -0.45459
C         -1.71573        1.78946       -0.60453
C         -2.13733        3.08163       -0.33328
O         -1.61388        5.27325        0.65228
C          1.28683        4.65600        0.60972
H          1.55336        2.01508        0.06519
H         -2.41656        1.03001       -0.90608
C         -3.61909        3.44219       -0.52089
C          4.50639       -0.99140       -0.01930
C          4.08376       -0.15286       -1.08243
C          2.72492        0.05893       -1.25202
C          1.80393       -0.59331       -0.47277
C          2.20799       -1.49466        0.47741
C          3.55022       -1.73994        0.71184
O          5.87995       -1.05214        0.33715
C          5.07576        0.53462       -2.03488
H          2.36865        0.75625       -1.98977
H          1.45349       -1.99129        1.06196
C          3.94194       -2.76566        1.78665
C          2.62429        4.28570       -0.07080
C          0.93189        6.08274        0.15371
C          1.48895        4.61704        2.13219
C         -4.24986        2.59243       -1.64554
C         -4.37765        3.15850        0.78511
C         -3.78707        4.91756       -0.92701
C         -1.92303        5.28690        2.04057
H          3.37118        5.06201        0.09398
H          3.03391        3.35915        0.32860
H          2.49283        4.17019       -1.14642
H          1.74046        6.77820        0.37740
H          0.75021        6.10784       -0.92023
H          0.03716        6.44819        0.65114
H          0.57985        4.89530        2.65919
H          1.76536        3.61435        2.45760
H          2.27899        5.30197        2.43896
H         -3.65599        2.64928       -2.55742
H         -4.33393        1.54858       -1.35158
H         -5.25623        2.94048       -1.87741
H         -5.43753        3.38831        0.67933
H         -4.28560        2.10877        1.06339
H         -3.98549        3.75228        1.60687
H         -3.21756        5.13380       -1.83024
H         -4.83310        5.15390       -1.12056
H         -3.43886        5.58758       -0.14513
H         -1.76953        4.29761        2.47374
H         -1.28752        6.01074        2.55037
H         -2.96061        5.58911        2.18143
C          6.27467       -0.07116        1.28816
C          5.45853        1.91160       -1.47268
C          6.33757       -0.32492       -2.23465
C          4.44178        0.73212       -3.43064
C          4.04939       -2.05560        3.14486
C          2.87336       -3.87766        1.89685
C          5.27319       -3.45577        1.43905
H          4.57909        2.54759       -1.38299
H          5.90759        1.82546       -0.48624
H          6.17176        2.41500       -2.12488
H          6.07181       -1.31916       -2.59215
H          7.00996        0.12886       -2.96228
H          6.88972       -0.44140       -1.30546
H          4.04723       -0.20871       -3.81361
H          3.63196        1.45978       -3.40674
H          5.18057        1.09975       -4.14246
H          4.31194       -2.75924        3.93432
H          4.80693       -1.27589        3.12321
H          3.10124       -1.58813        3.40992
H          1.93693       -3.49888        2.30379
H          2.67112       -4.31946        0.92149
H          3.21038       -4.67309        2.56112
H          6.09620       -2.74579        1.42266
H          5.21716       -3.92475        0.45728
H          5.51769       -4.22622        2.16988
H          7.06848        0.54650        0.86841
H          5.42667        0.55927        1.55888
H          6.66185       -0.56197        2.18090
