171
-217.84198385
P         -1.62963        0.37226       -0.43682
P          1.64052       -0.27588       -0.32078
C         -0.89774        1.45571       -1.66750
C          1.04147       -1.16211       -1.75569
C          0.00835        0.96118       -2.60009
C          0.65886        1.87226       -3.45486
C          0.34064        3.21810       -3.38325
C         -0.59035        3.68191       -2.47901
C         -1.19974        2.79522       -1.61395
C          1.34305       -2.49559       -1.88211
C          0.87412       -3.21091       -2.96636
C          0.08933       -2.58269       -3.91022
C         -0.22344       -1.23754       -3.79939
C          0.27754       -0.50076       -2.70944
Cl         1.49528        0.43304        2.84830
Cl        -1.58929       -0.25521        2.87966
C         -1.05138       -0.58239       -4.84808
C          1.69134        1.42569       -4.42914
H         -0.83217        4.73144       -2.43737
H         -1.91726        3.15214       -0.89343
H          1.95215       -2.97668       -1.13363
H          1.12020       -4.25476       -3.07311
H          0.83580        3.90653       -4.04730
H         -0.28614       -3.13904       -4.75243
C         -3.67564       -3.34117       -2.01299
C         -2.70021       -3.47405       -1.03166
C         -2.05387       -2.32336       -0.59910
C         -2.38957       -1.09845       -1.11965
C         -3.36292       -0.98207       -2.08181
C         -4.03084       -2.10812       -2.54853
H         -4.17954       -4.22153       -2.36172
H         -1.28963       -2.37707        0.15727
H         -3.61659       -0.00293       -2.45294
C         -4.58019        2.46949        2.29973
C         -3.27863        2.94823        2.23036
C         -2.40098        2.31721        1.35776
C         -2.81840        1.25493        0.59306
C         -4.10954        0.79434        0.67797
C         -5.02192        1.39883        1.53376
H         -5.26319        2.92695        2.99164
H         -1.37107        2.62475        1.29766
H         -4.39226       -0.05997        0.08927
C          4.03947       -2.87374        2.53261
C          2.70493       -3.18462        2.29978
C          2.00760       -2.41102        1.38137
C          2.61748       -1.35900        0.74283
C          3.93481       -1.06321        0.99152
C          4.67452       -1.81456        1.89492
H          4.59382       -3.46254        3.23749
H          0.96748       -2.61122        1.18668
H          4.38540       -0.22398        0.49202
C          4.09929        3.34312       -1.46037
C          2.97753        3.52139       -0.65985
C          2.23449        2.39756       -0.32005
C          2.59765        1.16074       -0.79019
C          3.69937        1.00233       -1.59474
C          4.48772        2.09511       -1.93366
H          4.68814        4.20567       -1.70925
H          1.36662        2.47490        0.31190
H          3.95040        0.01630       -1.94958
Pd        -0.05589        0.04236        1.25995
C         -0.91968       -5.22380       -0.93088
C         -2.31825       -4.83332       -0.42790
C         -3.31416       -5.93836       -0.83103
C         -2.31194       -4.73340        1.11054
H         -0.59592       -6.17051       -0.49883
H         -0.91863       -5.32918       -2.01545
H         -0.18704       -4.46177       -0.67008
H         -3.05864       -6.88244       -0.34991
H         -4.32926       -5.67714       -0.53225
H         -3.30231       -6.10797       -1.90739
H         -2.07351       -5.69579        1.56304
H         -1.57595       -4.01295        1.46264
H         -3.28822       -4.41964        1.47931
C         -5.77607       -3.31334       -3.96316
C         -5.16051       -1.95336       -3.57942
C         -4.61130       -1.29538       -4.85683
C         -6.27081       -1.07053       -2.98203
H         -6.21019       -3.80756       -3.09420
H         -6.57045       -3.18387       -4.69818
H         -5.02729       -3.97362       -4.40042
H         -4.17702       -0.31917       -4.64531
H         -3.84257       -1.92108       -5.30826
H         -5.40226       -1.15487       -5.59342
H         -6.67312       -1.52353       -2.07639
H         -5.89440       -0.08041       -2.72748
H         -7.09156       -0.94386       -3.68781
C         -1.38549        4.52380        2.86108
C         -2.83233        4.08688        3.15747
C         -2.90723        3.60052        4.61588
C         -3.75524        5.30422        2.96261
H         -1.28688        4.85828        1.82890
H         -1.08909        5.34979        3.50739
H         -0.68541        3.70620        3.03196
H         -2.57768        4.37777        5.30503
H         -3.92485        3.32126        4.88660
H         -2.27175        2.72693        4.76086
H         -3.73816        5.63711        1.92494
H         -4.78646        5.06854        3.22218
H         -3.43807        6.13752        3.58940
C         -6.63403        0.33553        3.12576
C         -6.45835        0.88320        1.69808
C         -6.77307       -0.24416        0.69661
C         -7.45085        2.03577        1.45522
H         -7.64031       -0.05607        3.27338
H         -5.92536       -0.46998        3.31757
H         -6.46443        1.11300        3.86985
H         -7.80212       -0.58578        0.80732
H         -6.64807        0.10554       -0.32727
H         -6.12260       -1.10468        0.85225
H         -7.31463        2.45682        0.45923
H         -8.48020        1.68676        1.53597
H         -7.31548        2.83787        2.17955
C          1.44837       -5.33897        2.04799
C          1.96767       -4.29923        3.05555
C          0.78344       -3.68289        3.82575
C          2.88676       -5.01340        4.06490
H          2.27173       -5.77209        1.48038
H          0.92286       -6.14803        2.55504
H          0.75804       -4.88453        1.34090
H          1.13430       -2.92927        4.53033
H          0.07776       -3.19985        3.15146
H          0.24153       -4.44471        4.38561
H          2.34418       -5.79682        4.59392
H          3.73341       -5.48096        3.56257
H          3.26749       -4.31554        4.81041
C          6.96513       -1.75960        0.89129
C          6.14406       -1.45254        2.15505
C          6.73009       -2.25541        3.33271
C          6.25302        0.04757        2.49382
H          8.01448       -1.50158        1.03304
H          6.90682       -2.81878        0.64129
H          6.59195       -1.19563        0.03826
H          6.15537       -2.08823        4.24354
H          6.73656       -3.32372        3.11780
H          7.75931       -1.95596        3.53032
H          7.28079        0.31915        2.73398
H          5.93469        0.67129        1.65964
H          5.62889        0.29334        3.35270
C          2.42644        5.86935       -1.35850
C          2.61247        4.92446       -0.15683
C          3.74381        5.44747        0.74642
C          1.30445        4.90921        0.65602
H          1.64962        5.49590       -2.02452
H          2.13663        6.86687       -1.02872
H          3.34482        5.96427       -1.93638
H          3.89877        4.77944        1.59351
H          4.68401        5.51904        0.20072
H          3.50660        6.43748        1.13552
H          1.04438        5.91341        0.99042
H          0.47646        4.53468        0.05499
H          1.40196        4.28156        1.54151
C          6.55080        3.19704       -2.94313
C          5.75978        1.88600       -2.77007
C          5.38267        1.35544       -4.16450
C          6.66714        0.86322       -2.06113
H          5.96064        3.94550       -3.47159
H          6.84626        3.60657       -1.97727
H          7.45887        3.02691       -3.52149
H          6.27439        1.15272       -4.75747
H          4.81103        0.43062       -4.09435
H          4.78239        2.08545       -4.70596
H          6.18311       -0.10993       -1.99268
H          7.60345        0.72959       -2.60266
H          6.90565        1.19500       -1.05072
H         -0.42301       -0.12809       -5.61469
H          2.56099        2.08187       -4.38754
H         -1.68137        0.19889       -4.42044
H         -1.70186       -1.30473       -5.34131
H          1.30498        1.44889       -5.44892
H          2.03223        0.41160       -4.21652
