171
-217.84709419
P         -1.59465        0.39620       -0.35115
P          1.60971       -0.32287       -0.27408
C         -0.83676        1.44663       -1.59816
C          0.97861       -1.21398       -1.69745
C          0.01013        0.91983       -2.56756
C          0.66342        1.80391       -3.44790
C          0.41810        3.16336       -3.34990
C         -0.44520        3.66345       -2.39855
C         -1.06394        2.79915       -1.51725
C          1.22225       -2.56180       -1.79143
C          0.72011       -3.28364       -2.85662
C         -0.03745       -2.64675       -3.81705
C         -0.29481       -1.28788       -3.73934
C          0.23548       -0.54821       -2.66478
Cl         1.51092        0.43946        2.93925
Cl        -1.61862       -0.24149        2.92214
C         -1.10154       -0.62971       -4.80346
C          1.62028        1.31086       -4.47657
H         -0.63076        4.72326       -2.33627
H         -1.72693        3.18299       -0.75900
H          1.81042       -3.04972       -1.03089
H          0.91940       -4.33978       -2.93612
H          0.91873        3.83372       -4.02814
H         -0.43785       -3.20732       -4.64489
C         -3.54866       -3.39813       -1.84725
C         -2.65699       -3.47656       -0.78444
C         -2.03727       -2.30373       -0.37409
C         -2.31939       -1.11135       -0.99333
C         -3.21151       -1.04853       -2.03559
C         -3.84873       -2.19987       -2.48361
H         -4.03807       -4.29131       -2.18665
H         -1.33529       -2.31347        0.44133
H         -3.41321       -0.09108       -2.48508
C         -4.74778        2.63330        2.02297
C         -3.41443        2.98197        2.19699
C         -2.46202        2.30503        1.44516
C         -2.83883        1.31434        0.57204
C         -4.16171        0.98016        0.41833
C         -5.14817        1.63974        1.13937
H         -5.49563        3.13959        2.60523
H         -1.41421        2.52429        1.55733
H         -4.41847        0.18635       -0.25953
C          4.23872       -2.92121        2.36398
C          2.87837       -3.19823        2.29787
C          2.09836       -2.42225        1.45078
C          2.65587       -1.39440        0.73052
C          3.99964       -1.12779        0.81870
C          4.82333       -1.89626        1.63093
H          4.86412       -3.50570        3.01214
H          1.03982       -2.60429        1.37357
H          4.39931       -0.29998        0.26149
C          3.95130        3.38534       -1.37117
C          2.89758        3.50098       -0.47358
C          2.18912        2.34999       -0.15315
C          2.51389        1.15125       -0.73692
C          3.54451        1.05672       -1.63990
C          4.29331        2.18019       -1.97145
H          4.53669        4.25812       -1.59416
H          1.38324        2.37581        0.55951
H          3.76354        0.09549       -2.07309
Pd        -0.03322        0.00359        1.35035
C         -0.96129       -5.30007       -0.61159
C         -2.32100       -4.80620       -0.09366
C         -3.38735       -5.88029       -0.38642
C         -2.25489       -4.60698        1.43448
H         -0.66812       -6.22954       -0.12389
H         -1.00182       -5.47949       -1.68567
H         -0.18561       -4.55827       -0.42758
H         -3.18131       -6.79219        0.17396
H         -4.37986       -5.53080       -0.10231
H         -3.40374       -6.14638       -1.44284
H         -1.45209       -3.92906        1.71840
H         -3.19094       -4.19393        1.80958
H         -2.07652       -5.55422        1.94315
C         -6.26084       -2.60361       -3.02081
C         -4.90045       -2.17598       -3.60220
C         -4.48913       -3.15237       -4.72033
C         -5.05299       -0.76821       -4.21059
H         -6.21713       -3.61367       -2.61491
H         -6.56381       -1.93380       -2.21666
H         -7.03623       -2.58416       -3.78643
H         -3.50865       -2.89603       -5.11878
H         -4.44211       -4.17761       -4.35556
H         -5.20414       -3.12604       -5.54247
H         -5.38386       -0.04999       -3.46073
H         -4.11221       -0.41701       -4.63231
H         -5.79275       -0.77111       -5.01100
C         -3.44566        3.54987        4.63431
C         -3.03170        4.04439        3.23649
C         -3.75470        5.36465        2.91246
C         -1.51438        4.30999        3.24316
H         -2.95589        2.60417        4.86601
H         -3.16885        4.27180        5.40234
H         -4.52187        3.39235        4.69521
H         -4.83672        5.24594        2.95270
H         -3.47940        6.14409        3.62277
H         -3.49246        5.71106        1.91290
H         -0.95753        3.40749        3.49482
H         -1.18089        4.66494        2.26907
H         -1.25667        5.07162        3.97889
C         -6.85948        0.17630       -0.04615
C         -6.63496        1.28222        1.00436
C         -7.42307        2.53188        0.57081
C         -7.15942        0.78002        2.36180
H         -7.91931       -0.06034       -0.13913
H         -6.50422        0.49095       -1.02722
H         -6.34088       -0.74100        0.23231
H         -7.04626        2.91401       -0.37779
H         -8.48102        2.30176        0.44577
H         -7.34093        3.32874        1.30899
H         -7.06847        1.54752        3.12952
H         -8.20993        0.49774        2.29443
H         -6.59533       -0.09189        2.69251
C          1.11862       -3.63464        4.02622
C          2.20921       -4.28427        3.15202
C          3.21989       -4.98868        4.07714
C          1.57474       -5.33780        2.22830
H          0.34771       -3.16412        3.41755
H          0.63443       -4.37521        4.66230
H          1.54828       -2.86553        4.66760
H          2.72525       -5.74834        4.68232
H          4.00084       -5.48428        3.50075
H          3.68878       -4.27850        4.75799
H          1.09701       -6.12899        2.80590
H          0.81816       -4.88874        1.58862
H          2.32842       -5.79357        1.58646
C          6.77740       -0.48052        0.82366
C          6.32759       -1.61855        1.76131
C          7.11691       -2.88895        1.39451
C          6.64115       -1.21035        3.21195
H          7.84979       -0.30692        0.91173
H          6.56654       -0.72605       -0.21704
H          6.27227        0.45359        1.06888
H          6.87951       -3.71266        2.06656
H          6.88271       -3.20707        0.37874
H          8.19061       -2.71127        1.45337
H          6.07346       -0.32322        3.49217
H          6.38396       -2.00569        3.91057
H          7.70078       -0.98694        3.33464
C          2.38949        5.91733       -0.94043
C          2.57683        4.85931        0.16354
C          3.73935        5.26853        1.08464
C          1.28311        4.79814        0.99767
H          1.60140        5.61790       -1.63029
H          2.11514        6.88168       -0.51316
H          3.30252        6.05904       -1.51703
H          3.89033        4.52416        1.86629
H          4.67026        5.35983        0.52590
H          3.53964        6.22682        1.56376
H          1.04243        5.77753        1.41089
H          0.44061        4.47912        0.38461
H          1.38609        4.10571        1.83286
C          5.38801        3.17867       -4.01020
C          5.50885        2.10924       -2.90724
C          5.62483        0.72779       -3.58076
C          6.78486        2.36442       -2.08492
H          4.47521        3.04175       -4.58794
H          5.37127        4.18406       -3.59186
H          6.23117        3.12271       -4.69857
H          6.47057        0.70228       -4.26777
H          5.77965       -0.05864       -2.84244
H          4.72678        0.49330       -4.15166
H          6.88813        1.62306       -1.29342
H          7.67289        2.31223       -2.71455
H          6.76134        3.34884       -1.61850
H         -1.89900       -1.28602       -5.15164
H          2.53483        1.90356       -4.46585
H         -0.48016       -0.37838       -5.66389
H         -1.56399        0.28906       -4.44007
H          1.18905        1.37980       -5.47620
H          1.90151        0.27214       -4.29874
