171
-217.84493475
P         -1.56247        0.29787       -0.40768
P          1.63436       -0.41738       -0.21999
C         -0.78807        1.26280       -1.70822
C          1.01852       -1.39856       -1.59695
C          0.03481        0.64834       -2.64398
C          0.65714        1.44385       -3.62469
C          0.41585        2.80794       -3.64332
C         -0.41633        3.39547       -2.71404
C         -1.01438        2.61679       -1.74279
C          1.25456       -2.75192       -1.57445
C          0.72747       -3.56819       -2.55538
C         -0.05534       -3.02036       -3.54892
C         -0.30559       -1.65908       -3.59234
C          0.25711       -0.82259       -2.60855
Cl         1.42190        0.08828        2.99388
Cl        -1.80483       -0.46707        2.75945
C         -1.18899       -1.12085       -4.66320
C          1.53982        0.83317       -4.65602
H         -0.60236        4.45645       -2.74762
H         -1.66533        3.06597       -1.01019
H          1.85284       -3.17539       -0.78442
H          0.91835       -4.62876       -2.53637
H          0.88709        3.41223       -4.40000
H         -0.48939       -3.65430       -4.30377
C         -3.80279       -3.29488       -1.99663
C         -2.84640       -3.48658       -1.00769
C         -2.16982       -2.36979       -0.53343
C         -2.42852       -1.12847       -1.05839
C         -3.35782       -0.95900       -2.05587
C         -4.07481       -2.04659       -2.54177
H         -4.36644       -4.14265       -2.33970
H         -1.43807       -2.45679        0.25083
H         -3.52087        0.03142       -2.44584
C         -4.44485        2.92294        1.92440
C         -3.08002        3.09315        2.11806
C         -2.21699        2.30151        1.37097
C         -2.70675        1.34796        0.51217
C         -4.06004        1.17210        0.36137
C         -4.96002        1.96643        1.05951
H         -5.12956        3.55112        2.46299
H         -1.15137        2.40962        1.47061
H         -4.41106        0.40274       -0.30164
C          4.46400       -2.74968        2.45835
C          3.13895       -3.15853        2.37356
C          2.29283       -2.45449        1.52550
C          2.76296       -1.38954        0.79651
C          4.07688       -1.00317        0.89246
C          4.95630       -1.67223        1.73247
H          5.11983       -3.27862        3.12380
H          1.25027       -2.71185        1.45157
H          4.41661       -0.15841        0.31984
C          3.75139        3.46702       -1.18001
C          2.70448        3.47257       -0.26631
C          2.04879        2.27314       -0.02367
C          2.42238        1.12664       -0.67969
C          3.45763        1.13792       -1.58311
C          4.15606        2.31212       -1.84040
H          4.27582        4.38347       -1.36919
H          1.25487        2.22648        0.70202
H          3.73917        0.21779       -2.06741
Pd        -0.08752       -0.15761        1.34923
C         -1.39443       -4.90549        0.51890
C         -2.59370       -4.89239       -0.44759
C         -2.29074       -5.86303       -1.60495
C         -3.84593       -5.36334        0.31234
H         -1.19828       -5.91536        0.87886
H         -0.49271       -4.54754        0.02273
H         -1.58393       -4.27764        1.38921
H         -1.43366       -5.51775       -2.18194
H         -2.06372       -6.86005       -1.22782
H         -3.13745       -5.95135       -2.28426
H         -3.69639       -6.35711        0.73404
H         -4.07895       -4.68054        1.12923
H         -4.71307       -5.40495       -0.34603
C         -4.97626       -2.89707       -4.73880
C         -5.18903       -1.89408       -3.58800
C         -5.21680       -0.47241       -4.18288
C         -6.54420       -2.17237       -2.91315
H         -5.74713       -2.78157       -5.50060
H         -4.00973       -2.74501       -5.21666
H         -5.01623       -3.92621       -4.38486
H         -5.43433        0.27149       -3.41704
H         -4.26257       -0.22185       -4.64549
H         -5.98837       -0.38851       -4.94809
H         -6.58162       -3.18411       -2.51042
H         -6.71453       -1.47973       -2.08986
H         -7.36439       -2.06244       -3.62235
C         -1.09256        3.85979        3.49939
C         -2.55582        4.14544        3.10598
C         -3.39884        4.13111        4.39710
C         -2.64108        5.53164        2.44684
H         -0.42639        3.97366        2.64723
H         -0.75407        4.55267        4.26950
H         -0.98409        2.84710        3.88773
H         -3.41835        3.13186        4.83170
H         -2.98355        4.81270        5.13931
H         -4.42624        4.44043        4.21133
H         -3.67113        5.77651        2.18865
H         -2.26605        6.30676        3.11490
H         -2.05221        5.55983        1.53031
C         -7.08528        1.43846        2.27893
C         -6.47954        1.80492        0.91172
C         -6.83664        0.69296       -0.09397
C         -7.08648        3.12803        0.41013
H         -8.16297        1.29500        2.20276
H         -6.64708        0.51531        2.65779
H         -6.90412        2.22085        3.01495
H         -7.91738        0.58992       -0.19037
H         -6.43730        0.91778       -1.08263
H         -6.44129       -0.26977        0.22962
H         -6.64941        3.41304       -0.54674
H         -8.16408        3.03633        0.27520
H         -6.90710        3.93914        1.11481
C          1.16919       -4.66087        2.94928
C          2.63822       -4.31215        3.25381
C          2.74551       -3.89556        4.73166
C          3.49532       -5.56618        2.99948
H          0.51289       -3.81508        3.15353
H          1.05041       -4.95111        1.90611
H          0.83210       -5.49414        3.56560
H          3.77748       -3.68112        5.00711
H          2.15637       -2.99812        4.91996
H          2.38005       -4.68492        5.38818
H          3.13744       -6.40878        3.59092
H          3.45651       -5.85138        1.94828
H          4.53854       -5.39664        3.26261
C          7.17745       -1.93471        2.94909
C          6.41631       -1.20623        1.82458
C          6.45630        0.30696        2.11729
C          7.11767       -1.49466        0.48624
H          8.19961       -1.56436        3.02674
H          6.69368       -1.77791        3.91308
H          7.23172       -3.00633        2.75877
H          7.48274        0.65449        2.23301
H          6.00257        0.88345        1.31233
H          5.91686        0.53448        3.03646
H          8.15477       -1.16030        0.50702
H          7.10988       -2.56268        0.26935
H          6.61592       -0.98542       -0.33491
C          0.82022        5.05961        0.19607
C          2.28849        4.72701        0.51446
C          3.15293        5.94767        0.14472
C          2.45128        4.45508        2.02215
H          0.48043        5.92089        0.77085
H          0.70202        5.29307       -0.86131
H          0.16549        4.22105        0.42560
H          2.84165        6.82610        0.70996
H          4.20405        5.76701        0.36895
H          3.06050        6.18765       -0.91438
H          2.14668        5.32000        2.61107
H          1.85112        3.60416        2.34065
H          3.49085        4.23226        2.26146
C          6.06910        3.66175       -2.84872
C          5.37172        2.28888       -2.78083
C          4.91986        1.90334       -4.19855
C          6.39059        1.25480       -2.26663
H          5.39707        4.42530       -3.24003
H          6.41543        3.97475       -1.86384
H          6.93773        3.62159       -3.50592
H          5.76589        1.88168       -4.88533
H          4.45823        0.91695       -4.20870
H          4.19713        2.62462       -4.57867
H          5.96892        0.25067       -2.27084
H          7.28327        1.24164       -2.89173
H          6.69604        1.48945       -1.24716
H         -2.13892       -1.65443       -4.67693
H          2.12259        0.01131       -4.23749
H         -0.72820       -1.23485       -5.64546
H         -1.41020       -0.06374       -4.51144
H          2.23620        1.56650       -5.06263
H          0.95487        0.44201       -5.48887
