115
-277.94056474
P         -1.65098       -0.60291       -0.03537
P          1.99964        0.31664       -0.13592
C         -2.09864       -2.33247        0.16849
C         -1.12179       -3.27852        0.39190
H         -0.12321       -2.97708        0.66120
C         -1.40814       -4.61223        0.18759
H         -0.63362       -5.36107        0.24851
C         -2.66216       -4.99582       -0.25874
C         -3.66983       -4.04697       -0.35479
H         -4.63947       -4.34771       -0.71795
C         -3.38975       -2.71260       -0.13340
H         -4.14567       -1.96087       -0.29973
C         -3.02622        0.37120        0.62262
C         -3.79206        1.09656       -0.26150
H         -3.54651        1.09405       -1.31088
C         -4.87783        1.81480        0.19348
H         -5.49258        2.38026       -0.48874
C         -5.20680        1.80853        1.53538
C         -4.43981        1.07192        2.41556
H         -4.71828        1.05923        3.45767
C         -3.35234        0.35823        1.95835
H         -2.76024       -0.22358        2.64677
C         -1.44891       -0.18179       -1.80010
C         -0.91512        1.08460       -1.93895
H         -0.61712        1.62419       -1.05668
C         -0.60732        1.60981       -3.19298
C         -1.06156        0.91992       -4.31075
H         -0.87259        1.32257       -5.29179
C         -1.60016       -0.34470       -4.18112
H         -1.82677       -0.91486       -5.06615
C         -1.69337       -0.96709       -2.93638
C          1.72159       -0.22459       -1.85510
C          1.17598       -1.49528       -1.89713
H          0.90260       -1.97837       -0.97354
C          0.81880       -2.09166       -3.10582
C          1.22803       -1.46690       -4.27833
H          0.99849       -1.92388       -5.22638
C          1.76754       -0.19652       -4.24460
H          1.95370        0.32206       -5.16984
C          1.91235        0.49656       -3.04293
C         -1.70060       -2.48018       -2.92222
H         -2.40523       -2.85032       -3.67583
H         -2.12007       -2.83158       -1.98336
C         -0.28158       -3.11867       -3.14504
H         -0.08187       -3.89933       -2.40328
H         -0.24757       -3.64169       -4.10731
C          0.48597        2.63488       -3.32467
H          0.30181        3.44875       -2.61508
H          0.41547        3.10919       -4.30985
C          1.91482        2.00959       -3.11615
H          2.58811        2.33089       -3.91871
H          2.36723        2.41235       -2.21390
C          2.17997        2.09740        0.03552
C          1.08574        2.88871        0.30913
C          3.39087        2.66489       -0.30136
C          1.16730        4.25034        0.10755
C          3.47069        4.02892       -0.50165
C          2.34181        4.81872       -0.36076
C          3.49839       -0.46383        0.50661
C          3.91164       -1.66052       -0.03292
C          4.23534        0.13053        1.50472
C          5.06530       -2.26369        0.42478
H          3.34344       -2.11468       -0.82708
C          5.38619       -0.47355        1.96561
H          3.90563        1.06486        1.93049
C          5.80693       -1.67593        1.42978
H          5.41738       -3.19043        0.00005
H          5.97712       -0.01458        2.74216
Pd         0.25829       -0.30150        1.31481
Cl        -1.08616       -1.28363        2.83115
Cl         1.74667        0.32568        2.87666
H          4.37295        4.48197       -0.88231
H          4.24124        2.03385       -0.50835
H          0.29269        4.87237        0.20934
H          0.15903        2.44402        0.63176
C         -4.23600       -6.84856       -0.98705
C         -2.77185       -6.32266       -0.96836
C         -2.19589       -6.08559       -2.40143
F         -4.68795       -6.83971        0.27573
F         -4.99432       -6.04402       -1.74448
F         -4.24725       -8.09935       -1.47361
F         -2.01069       -7.23592       -0.36064
F         -2.34539       -7.19170       -3.14225
F         -2.82768       -5.04403       -2.96017
F         -0.89807       -5.78241       -2.26592
C         -6.47127        3.98100        1.46399
C         -6.43189        2.53225        2.03348
C         -7.69007        1.70658        1.63981
F         -5.28899        4.55399        1.73545
F         -6.66041        3.93711        0.13775
F         -7.46297        4.66220        2.05857
F         -6.40233        2.62136        3.36603
F         -7.70707        1.53536        0.30974
F         -7.59372        0.51455        2.24791
F         -8.79393        2.34937        2.04967
C          8.27001       -1.58663        1.11955
C          7.10675       -2.30862        1.85792
C          7.25950       -2.25221        3.40666
F          8.09065       -1.78086       -0.19569
F          8.21879       -0.27471        1.39365
F          9.44216       -2.10843        1.51078
F          7.13008       -3.59442        1.49618
F          6.14222       -2.76623        3.94240
F          8.32489       -2.98221        3.77144
F          7.40643       -0.97875        3.79808
C          1.73617        5.89537       -2.47560
C          2.31580        6.15917       -1.05028
C          1.49178        7.20291       -0.24266
F          1.74797        7.03085       -3.18666
F          2.50790        4.96629       -3.05788
F          0.49280        5.41328       -2.36135
F          3.55658        6.63239       -1.19045
F          1.58999        8.39861       -0.84439
F          0.21019        6.81665       -0.17517
F          2.01290        7.26260        0.99209
