111
-148.55997992
P         -2.49061       -2.25858       -0.52954
P         -0.00363       -0.29795       -0.50461
C         -1.58266       -1.94083       -2.06442
C         -0.49559       -1.09485       -2.04521
C         -3.00239       -4.03062       -0.38974
C         -2.17259       -4.75488        0.64796
C         -1.97938       -2.52704       -3.24923
H         -2.84147       -3.17376       -3.26121
C         -1.27558       -2.27105       -4.41337
H         -1.58340       -2.72923       -5.33909
C         -0.18123       -1.42779       -4.39041
H          0.36691       -1.22832       -5.29646
C          0.20792       -0.83488       -3.20260
H          1.05776       -0.17144       -3.16885
Pd        -1.21187       -1.35916        1.16194
Cl        -2.76605       -2.06237        2.61952
Cl         0.14593       -0.47470        2.71205
C         -4.50231       -3.92861       -0.05375
C         -4.14426       -1.43138       -0.49417
H         -2.47728       -5.79958        0.74511
H         -1.11022       -4.73274        0.39298
H         -2.28364       -4.28663        1.62746
H         -4.62076       -3.95922        1.03819
H         -5.04180       -4.80925       -0.43433
H         -4.22493       -0.95690        0.49275
C         -5.12573       -2.61336       -0.60272
C         -4.26683       -0.40496       -1.60036
H         -2.86035       -4.47841       -1.38150
H         -5.39930       -2.75048       -1.65792
H         -6.06671       -2.37801       -0.08255
H         -4.15565       -0.87581       -2.57879
H         -5.24024        0.09068       -1.58018
H         -3.49220        0.36128       -1.51923
C         -1.12845        4.11621       -0.40995
C         -0.09743        3.66633       -1.27726
C          0.22356        2.31849       -1.26885
C         -0.48979        1.42556       -0.51193
C         -1.57778        1.83604        0.21445
C         -1.94677        3.16966        0.26118
O         -1.28283        5.50189       -0.14823
C          0.67305        4.58343       -2.24235
H          1.05355        1.95242       -1.84962
H         -2.13465        1.10441        0.77310
C         -3.21442        3.53713        1.05086
C          4.41028       -0.82855        0.47900
C          3.72856        0.34514        0.89003
C          2.38588        0.46660        0.57416
C          1.74446       -0.48501       -0.17385
C          2.42239       -1.57379       -0.65633
C          3.76900       -1.75339       -0.38493
O          5.71755       -1.09801        0.96437
C          4.40196        1.45629        1.71016
H          1.80962        1.30205        0.93296
H          1.87790       -2.29188       -1.24476
C          4.50092       -2.95613       -1.00104
C          0.00780        5.96169       -2.40087
C          2.11392        4.76439       -1.73742
C          0.70577        3.93482       -3.64380
C         -4.35745        2.56989        0.67214
C         -2.92914        3.41078        2.55671
C         -3.70832        4.96004        0.73740
C         -0.47298        5.94869        0.92665
H          0.51211        6.55626       -3.16226
H         -1.03683        5.85312       -2.69040
H          0.03907        6.52412       -1.47079
H          2.13010        5.21120       -0.74500
H          2.62847        3.80595       -1.68047
H          2.68282        5.40982       -2.40613
H          1.25630        2.99558       -3.64251
H         -0.30501        3.73175       -3.99655
H          1.18811        4.59338       -4.36569
H         -5.28769        2.85750        1.16133
H         -4.52769        2.57881       -0.40398
H         -4.13800        1.54711        0.97285
H         -3.81831        3.64218        3.14246
H         -2.61458        2.39872        2.80988
H         -2.13748        4.09077        2.86529
H         -3.84997        5.09004       -0.33493
H         -4.65663        5.16509        1.23362
H         -2.99376        5.70810        1.07247
H         -0.73869        5.41848        1.83977
H          0.57711        5.76260        0.70669
H         -0.62711        7.01798        1.07294
C          5.74115       -1.84081        2.17697
C          5.89679        1.57788        1.36334
C          3.75768        2.82765        1.40314
C          4.22534        1.15555        3.20628
C          5.98454       -2.63313       -1.25571
C          4.37584       -4.16416       -0.06041
C          3.88151       -3.32832       -2.36773
H          6.44085        0.67453        1.62697
H          6.03002        1.74798        0.29548
H          6.35711        2.40760        1.89921
H          2.73092        2.88316        1.76154
H          4.30930        3.63196        1.88931
H          3.75876        3.02232        0.33148
H          4.67832        1.93514        3.81814
H          3.16813        1.09443        3.46365
H          4.68500        0.20735        3.47454
H          6.08214       -1.75083       -1.88737
H          6.51361       -2.43774       -0.32636
H          6.48677       -3.46316       -1.75199
H          4.82057       -3.95620        0.90977
H          3.32881       -4.41835        0.10302
H          4.87439       -5.03816       -0.47875
H          2.87386       -3.72680       -2.25965
H          4.47578       -4.09389       -2.86610
H          3.83821       -2.45890       -3.02328
H          6.24439       -1.26224        2.95143
H          4.72550       -2.07383        2.49944
H          6.29725       -2.76626        2.02825
