72
-98.10105036
Fe         0.00159        2.82640        0.02879
P          1.83321       -0.06366        0.07015
P         -1.86418       -0.05938        0.03121
C          1.40647        1.57718        0.75879
C          0.38131        1.83708        1.75506
C          0.35151        3.26599        2.01396
C          1.36080        3.89126        1.17891
C          2.02057        2.84811        0.41214
C         -1.45149        1.59225       -0.65596
C         -2.02327        2.86330       -0.23911
C         -1.40596        3.92119       -1.02092
C         -0.45449        3.30837       -1.92872
C         -0.48173        1.87442       -1.69969
C          3.24054       -0.77558        1.04170
C          4.46304       -0.30643        0.23574
C          2.68326        0.10469       -1.57271
C          4.15496       -0.25618       -1.28305
C         -3.17705       -0.80305       -1.04896
C         -4.41294        0.00037       -0.60901
C         -2.95392        0.18630        1.52033
C         -4.35753        0.38772        0.89938
H         -0.26119        1.08690        2.21678
H         -0.30961        3.77732        2.71733
H          1.59917        4.95672        1.14958
H          2.84123        2.98706       -0.29464
H         -2.79147        2.99683        0.52510
H          0.08992        1.13180       -2.25423
Cl         1.52550       -3.12331       -0.22727
Cl        -1.55193       -3.11559        0.34459
Pd        -0.01039       -1.49003        0.04858
H          3.14420       -1.86625        0.98909
C          3.26009       -0.32172        2.49688
H          2.58600        1.15790       -1.86146
C          2.05166       -0.79579       -2.62864
H          5.32937       -0.95375        0.44261
H          4.75221        0.69435        0.58666
H          4.83084        0.44388       -1.79631
H          4.36844       -1.24015       -1.72202
H         -1.63200        4.98750       -0.95041
H          0.16276        3.83011       -2.66357
H          4.21727       -0.61415        2.95067
H          2.18716       -1.84254       -2.32599
H         -3.28421       -1.85342       -0.75436
C         -2.87558       -0.70333       -2.54247
H         -2.60813        1.09444        2.02827
C         -2.92798       -0.99481        2.48909
H         -5.33492       -0.55517       -0.84099
H         -4.46233        0.91194       -1.22274
H         -4.69512        1.42538        1.03932
H         -5.08048       -0.22181        1.45960
H         -3.81211       -0.82853       -3.10364
H         -3.15334       -1.91073        1.92759
C          2.10727       -0.88299        3.30945
H          1.15252       -0.56008        2.89801
H          2.10946       -1.97459        3.29973
H          2.14126       -0.56005        4.35242
C          2.61756       -0.56899       -4.02228
H          3.69214       -0.75735       -4.05129
H          2.15041       -1.22013       -4.76465
H          2.46317        0.46210       -4.34604
C         -1.85494       -1.72344       -3.01979
H         -1.63952       -1.62329       -4.08598
H         -0.91279       -1.62129       -2.48444
H         -2.20601       -2.74273       -2.84825
C         -1.62370       -1.15291        3.24988
H         -1.66174       -1.98407        3.95779
H         -0.79605       -1.35029        2.57108
H         -1.38113       -0.25173        3.81595
H          3.24960        0.77576        2.52599
H          0.96686       -0.64477       -2.63803
H         -2.53903        0.31637       -2.76940
H         -3.75556       -0.88512        3.20390
