111
-148.55493459
P         -2.53209       -2.02889       -1.09800
P          0.15277       -0.44007       -0.48277
C         -1.36043       -1.67266       -2.43790
C         -0.17410       -1.02950       -2.15477
C         -3.37515       -3.66048       -1.32503
C         -2.81184       -4.71203       -0.39426
C         -1.65228       -2.03342       -3.73782
H         -2.58971       -2.51637       -3.95958
C         -0.74826       -1.75751       -4.74929
H         -0.97591       -2.03914       -5.76443
C          0.44300       -1.11967       -4.46070
H          1.14518       -0.90256       -5.24872
C          0.72891       -0.74979       -3.15876
H          1.64542       -0.23409       -2.91750
Pd        -1.33801       -1.61107        0.82768
Cl        -3.04770       -2.47275        2.00435
Cl        -0.23375       -1.00278        2.69087
C         -4.85610       -3.31252       -1.08549
C         -3.99677       -0.89934       -1.06328
H         -3.31162       -5.67404       -0.52956
H         -1.74206       -4.85818       -0.56170
H         -2.94240       -4.41805        0.64795
H         -5.09070       -3.48296       -0.02565
H         -5.50792       -3.99908       -1.64703
H         -4.10136       -0.56998       -0.02072
C         -5.16093       -1.83103       -1.45011
C         -3.80250        0.28525       -1.98474
H         -3.21746       -3.95049       -2.37148
H         -5.33478       -1.74893       -2.53187
H         -6.09482       -1.49402       -0.97508
H         -4.67949        0.93667       -1.98924
H         -2.94006        0.88280       -1.68266
H         -3.62861       -0.04599       -3.01024
C         -1.16691        3.89494       -0.03456
C         -0.97760        3.35372       -1.33229
C         -0.56847        2.03524       -1.44042
C         -0.42365        1.24849       -0.32846
C         -0.70793        1.73733        0.91822
C         -1.12221        3.04445        1.09936
O         -1.35793        5.29244        0.13129
C         -1.17147        4.18372       -2.61059
H         -0.34439        1.60562       -2.40066
H         -0.58589        1.07473        1.75701
C         -1.47979        3.51897        2.51588
C          4.49017       -0.68133        0.87445
C          3.89419        0.58047        0.61155
C          2.57016        0.60449        0.20855
C          1.87130       -0.55443       -0.00765
C          2.47802       -1.77559        0.12388
C          3.80174       -1.87384        0.52304
O          5.73053       -0.75017        1.55927
C          4.62440        1.92768        0.74355
H          2.06041        1.54353        0.07456
H          1.89814       -2.66069       -0.07712
C          4.44174       -3.27219        0.55482
C         -2.27596        5.23956       -2.42297
C          0.15549        4.86425       -2.97917
C         -1.60715        3.28181       -3.78814
C         -2.07244        2.35481        3.34362
C         -0.20899        4.02329        3.21651
C         -2.54489        4.62961        2.47930
C         -0.15075        6.02147        0.31567
H         -2.45841        5.78475       -3.34868
H         -3.20932        4.76797       -2.11717
H         -2.00450        5.96653       -1.66150
H          0.48955        5.53092       -2.18777
H          0.93744        4.12224       -3.13951
H          0.05342        5.45038       -3.89213
H         -0.81469        2.59830       -4.08918
H         -2.48535        2.69417       -3.52271
H         -1.85952        3.88238       -4.66175
H         -2.44925        2.71310        4.30120
H         -2.89959        1.88373        2.81323
H         -1.32697        1.59127        3.56007
H          0.23689        4.85410        2.67462
H         -0.42879        4.36009        4.22922
H          0.53624        3.23053        3.27875
H         -2.84335        4.91974        3.48638
H         -2.17398        5.51953        1.97726
H         -3.43294        4.29154        1.94633
H          0.70960        5.35272        0.26563
H         -0.06362        6.78443       -0.45778
H         -0.16722        6.51955        1.28487
C          5.57677       -0.79184        2.96827
C          6.15048        1.75999        0.84066
C          4.34305        2.78862       -0.50850
C          4.10598        2.66890        1.98748
C          5.97667       -3.21285        0.64481
C          3.88658       -4.06049        1.75268
C          4.09675       -4.02469       -0.74946
H          6.65304        2.72693        0.83682
H          6.43360        1.24620        1.75618
H          6.52708        1.17725        0.00075
H          4.91142        3.71783       -0.47646
H          4.62536        2.25303       -1.41445
H          3.29067        3.05616       -0.58926
H          4.29643        2.09761        2.89394
H          4.59103        3.63892        2.09334
H          3.03140        2.83695        1.92092
H          6.30012       -2.78488        1.59065
H          6.41362       -4.20817        0.56753
H          6.38517       -2.59854       -0.15682
H          4.30391       -5.06659        1.78415
H          4.12676       -3.56841        2.69308
H          2.80226       -4.14826        1.69235
H          3.02843       -4.21460       -0.83757
H          4.60139       -4.98983       -0.78602
H          4.40988       -3.44855       -1.61972
H          6.55992       -0.84780        3.43603
H          5.06312        0.10332        3.31493
H          4.99126       -1.66384        3.25462
