115
-277.94104696
P         -1.62011       -0.72252       -0.05861
P          2.12300        0.27945        0.08122
C         -2.21004       -2.41365        0.10513
C         -1.32647       -3.42000        0.42990
H         -0.34003       -3.18085        0.79156
C         -1.67939       -4.73418        0.20431
H         -0.96637       -5.53159        0.34651
C         -2.90306       -5.03837       -0.36936
C         -3.82954       -4.02559       -0.57330
H         -4.77331       -4.26508       -1.03624
C         -3.48543       -2.71015       -0.32849
H         -4.16668       -1.91134       -0.57716
C         -2.95152        0.34981        0.52861
C         -3.59884        1.16405       -0.37248
H         -3.29199        1.17163       -1.40548
C         -4.64200        1.96316        0.04658
H         -5.15442        2.61273       -0.64556
C         -5.04836        1.94558        1.36734
C         -4.39113        1.13004        2.26633
H         -4.71057        1.13381        3.29665
C         -3.34819        0.33291        1.84493
H         -2.84029       -0.30815        2.54663
C         -1.27312       -0.35125       -1.81626
C         -0.71603        0.90467       -1.95553
H         -0.49071        1.47544       -1.07339
C         -0.29460        1.38560       -3.19411
C         -0.65723        0.66086       -4.32265
H         -0.38210        1.02863       -5.29699
C         -1.21445       -0.59578       -4.19537
H         -1.36942       -1.19462       -5.07692
C         -1.41945       -1.17447       -2.94241
C          1.92697       -0.38664       -1.61074
C          1.38411       -1.65981       -1.61383
H          1.07483       -2.10296       -0.68201
C          1.09007       -2.32147       -2.80627
C          1.57110       -1.76716       -3.98630
H          1.39308       -2.27655       -4.91862
C          2.11824       -0.50020       -3.99185
H          2.36553       -0.03669       -4.93182
C          2.19548        0.25902       -2.82458
C         -1.44259       -2.68627       -2.88288
H         -2.01823       -3.07106       -3.73296
H         -2.02102       -3.01057       -2.02162
C         -0.01396       -3.34480       -2.85641
H          0.08333       -4.03036       -2.00829
H          0.12726       -3.98345       -3.73576
C          0.81679        2.39940       -3.26485
H          0.60536        3.21546       -2.56593
H          0.80191        2.87785       -4.25051
C          2.22881        1.76280       -2.97910
H          2.92840        2.02146       -3.78175
H          2.67003        2.20029       -2.08667
C          1.99229        2.07355        0.23068
C          0.77538        2.67218        0.47873
C          3.09896        2.84141       -0.06281
C          0.63239        4.02933        0.28617
C          2.95450        4.20047       -0.25806
C          1.70737        4.79026       -0.14392
C          3.69759       -0.27709        0.76429
C          4.24438       -1.44138        0.27659
C          4.35214        0.43783        1.74094
C          5.45423       -1.88959        0.76296
H          3.73030       -1.99241       -0.49386
C          5.56268       -0.01167        2.22878
H          3.90917        1.34019        2.13095
C          6.11952       -1.17851        1.74334
H          5.90469       -2.79065        0.37877
H          6.09761        0.53846        2.98688
Pd         0.27411       -0.50235        1.32488
Cl        -1.19043       -1.47053        2.74103
Cl         1.83246       -0.19560        2.92298
H          3.77975        4.80266       -0.60488
H          4.05314        2.36654       -0.23015
H         -0.33568        4.49683        0.37025
H         -0.07426        2.08143        0.77760
C         -4.50803       -6.78951       -1.26279
C         -3.02289       -6.36096       -1.08534
C         -2.27901       -6.17491       -2.44705
F         -5.09146       -6.74459       -0.05595
F         -5.12625       -5.94079       -2.09550
F         -4.54923       -8.03922       -1.75040
F         -2.39475       -7.31712       -0.39692
F         -2.40293       -7.28331       -3.18915
F         -2.78896       -5.11145       -3.08321
F         -0.98975       -5.93616       -2.17025
C         -5.63494        4.29791        1.93342
C         -6.16459        2.83849        1.84640
C         -7.39767        2.70800        0.90430
F         -4.62312        4.30477        2.81471
F         -5.18793        4.67778        0.72723
F         -6.62048        5.10698        2.35089
F         -6.55144        2.47211        3.07148
F         -7.09461        3.20385       -0.30347
F         -7.68875        1.40270        0.79857
F         -8.43437        3.37136        1.43912
C          7.50038       -3.14741        2.49144
C          7.48084       -1.61300        2.22389
C          8.53574       -1.18271        1.16450
F          6.46454       -3.43190        3.29487
F          7.36959       -3.80801        1.33264
F          8.65474       -3.47556        3.09189
F          7.77995       -0.99776        3.37128
F          8.49543        0.15554        1.07994
F          9.75366       -1.58743        1.55445
F          8.21413       -1.71996       -0.02151
C          0.96116        5.80593       -2.24410
C          1.47818        6.12453       -0.80658
C          0.49302        7.00709        0.01199
F          0.78464        6.94562       -2.92611
F          1.88428        5.03771       -2.83912
F         -0.18285        5.11467       -2.15775
F          2.63058        6.78966       -0.92012
F          0.41378        8.21953       -0.55840
F         -0.71422        6.42578        0.04713
F          0.98270        7.11279        1.25657
