72
-98.09761934
Fe        -0.01120        2.80271       -0.00975
P          1.83157       -0.06233        0.03137
P         -1.83264       -0.09182       -0.03147
C          1.40345        1.58134        0.72096
C          0.41492        1.84054        1.75375
C          0.36660        3.27350        1.98036
C          1.33969        3.89737        1.10262
C          2.00612        2.85086        0.34645
C         -1.42390        1.55895       -0.71666
C         -2.02604        2.82444       -0.32772
C         -1.39259        3.88315       -1.09551
C         -0.40473        3.27279       -1.96647
C         -0.43300        1.83800       -1.74188
C          3.20370       -0.79313        1.03536
C          4.44626       -0.21743        0.33605
C          2.75111        0.14579       -1.56804
C          4.22969       -0.10401       -1.19717
C         -3.19753       -0.83217       -1.03848
C         -4.44540       -0.26757       -0.33961
C         -2.75553        0.10441        1.56762
C         -4.23158       -0.15661        1.19427
H         -0.18453        1.09075        2.26898
H         -0.27832        3.78850        2.69568
H          1.56197        4.96555        1.04952
H          2.80617        2.98997       -0.38356
H         -2.82686        2.95146        0.40376
H          0.17311        1.09774       -2.26345
Cl         1.57295       -3.10344       -0.38041
Cl        -1.54651       -3.11472        0.35879
Pd         0.01255       -1.52305        0.00783
H          3.16042       -1.87983        0.89821
C          3.10370       -0.44825        2.51638
H          2.59295        1.18492       -1.87962
C          2.23410       -0.81012       -2.63724
H          5.33366       -0.82697        0.56732
H          4.65407        0.77756        0.75492
H          4.87181        0.68004       -1.62500
H          4.55789       -1.03803       -1.67283
H         -1.63007        4.94788       -1.03936
H          0.23101        3.79685       -2.68396
H          4.05057       -0.70558        3.01120
H          2.45295       -1.83976       -2.32519
H         -3.14633       -1.91873       -0.90333
C         -3.09709       -0.48414       -2.51863
H         -2.60647        1.14397        1.88218
C         -2.23110       -0.84956        2.63487
H         -5.32791       -0.88310       -0.57369
H         -4.65998        0.72696       -0.75619
H         -4.88065        0.62098        1.62342
H         -4.55262       -1.09460        1.66698
H         -4.04042       -0.74878       -3.01633
H         -1.13786       -0.78532        2.67802
C          1.94778       -1.15149        3.20743
H          2.05553       -2.23646        3.15340
H          1.86876       -0.87821        4.26203
H          1.00066       -0.90287        2.73076
C          2.81980       -0.53709       -4.01434
H          2.58088        0.47406       -4.34947
H          3.90760       -0.62496       -4.00886
H          2.43826       -1.23139       -4.76644
C         -1.93321       -1.17671       -3.20710
H         -2.03303       -2.26261       -3.15658
H         -1.85183       -0.89976       -4.26056
H         -0.99006       -0.92254       -2.72548
C         -2.82222       -0.58679        4.01165
H         -3.90908       -0.68538        4.00370
H         -2.43534       -1.27974        4.76227
H         -2.59396        0.42558        4.35053
H          3.00890        0.64051        2.62107
H          1.14025       -0.75709       -2.67801
H         -3.01115        0.60553       -2.62147
H         -2.43892       -1.88037        2.31914
