105
-153.06606425
Cl        -0.35794        1.53678       -3.24187
Pd         0.45118        1.30282       -1.15435
P          1.56272        0.84945        0.87096
N          1.53641       -0.89550        0.86795
C          0.44292       -1.70579        1.20153
C         -0.14702       -2.51436        0.20227
C         -1.15049       -3.43691        0.54120
C         -1.75903       -4.27814       -0.55179
C         -3.06254       -4.98268       -0.14380
C         -2.92913       -5.62428        1.24130
C         -2.58968       -4.57069        2.30795
C         -1.54373       -3.57407        1.87434
C         -0.95976       -2.76392        2.84246
C          0.00378       -1.84312        2.51697
H          0.44438       -1.23070        3.28011
H         -1.28207       -2.86267        3.86522
H         -3.49736       -4.02457        2.58893
H         -3.84663       -6.16800        1.50752
H         -3.88101       -4.25235       -0.12696
H         -1.93477       -3.64150       -1.42801
C          0.38489       -2.43245       -1.17808
C         -0.33105       -1.72740       -2.17745
C          0.19142       -1.70286       -3.47231
C          1.39410       -2.29451       -3.76189
C          2.12468       -2.96271       -2.78661
C          3.45942       -3.55355       -3.17275
C          4.04948       -4.52460       -2.13635
C          3.83782       -4.00476       -0.71091
C          2.34081       -3.82308       -0.42046
C          1.61168       -3.04782       -1.49087
H          1.86218       -4.80412       -0.31688
H          4.34911       -3.04072       -0.59561
H          5.11678       -4.70201       -2.33033
H          4.16252       -2.72972       -3.34501
H          1.79369       -2.23384       -4.76010
H         -0.34379       -1.16698       -4.23655
N         -1.50741       -1.01971       -1.90625
P         -1.58577        0.21277       -0.63487
C         -2.49446       -0.34387        0.80249
C         -3.53946       -1.21640        0.61891
C         -4.31916       -1.59018        1.69907
C         -4.06000       -1.08146        2.96527
C         -3.00640       -0.19153        3.12511
C         -2.23293        0.18360        2.04260
H         -1.41872        0.87563        2.16348
H         -2.79128        0.20276        4.10358
C         -4.86624       -1.51319        4.14003
H         -5.13295       -2.28180        1.56354
H         -3.73822       -1.59979       -0.36937
C         -2.61535        1.55460       -1.27012
C         -3.65939        1.24914       -2.11124
C         -4.47132        2.25720       -2.59917
C         -4.24416        3.58015       -2.24659
C         -3.20269        3.86662       -1.37518
C         -2.39428        2.85660       -0.88814
H         -1.59192        3.08239       -0.20755
H         -3.02848        4.88717       -1.07970
C         -5.12837        4.66460       -2.75601
H         -5.28951        2.02071       -3.25782
H         -3.85012        0.22131       -2.37416
H         -1.89203       -0.54563       -2.71278
H          1.90732       -1.05109       -0.05986
C          0.89419        1.59465        2.34919
C          1.23096        1.09071        3.58238
C          0.68630        1.65225        4.72332
C         -0.18839        2.72709        4.63331
C         -0.47531        3.25240        3.38042
C          0.07013        2.68990        2.24094
H         -0.12772        3.10905        1.26844
H         -1.12760        4.10539        3.30257
C         -0.76612        3.33911        5.86153
H          0.93947        1.25843        5.69282
H          1.93080        0.27246        3.64727
C          3.27933        1.33622        0.68074
C          4.12368        0.59836       -0.11529
C          5.43862        0.99566       -0.27685
C          5.91714        2.13251        0.36018
C          5.04578        2.87178        1.14851
C          3.73098        2.47320        1.30829
H          3.05113        3.04905        1.91587
H          5.40175        3.76540        1.63205
C          7.32409        2.57803        0.16181
H          6.10069        0.42665       -0.90701
H          3.75471       -0.27751       -0.62292
Cl         2.20278        2.62219       -1.65403
H         -2.24855       -5.06051        3.22899
H         -3.35278       -5.73203       -0.89369
H         -2.13618       -6.38227        1.21336
H         -1.01927       -5.02103       -0.87270
H          4.30288       -4.67594        0.02491
H          2.20426       -3.33039        0.54945
H          3.35442       -4.05496       -4.14334
H          3.56621       -5.50444       -2.23873
H         -5.03596       -0.68172        4.82556
H         -5.84135       -1.89360        3.83272
H         -4.35492       -2.30431        4.69033
H         -4.58715        5.60835       -2.83626
H         -5.51785        4.42222       -3.74575
H         -5.97706        4.81852       -2.08821
H         -0.88857        2.59638        6.65114
H         -0.11892        4.13093        6.24107
H         -1.74692        3.77266        5.66096
H          7.98370        1.72923       -0.02399
H          7.39849        3.25512       -0.69017
H          7.69910        3.10185        1.04218
