58
-89.86520637
P          1.59994        0.22562        0.91916
C          2.72718        1.61364        0.76531
C          4.06506        1.39821        0.52669
C          4.92239        2.47622        0.39997
C          4.43135        3.76212        0.51266
C          3.08746        3.97279        0.75139
C          2.23222        2.89251        0.87823
H          1.17847        3.04031        1.05645
H          4.43176        0.38867        0.43473
C          2.39303       -1.29523        0.37333
C          2.66972       -1.42936       -0.96831
C          3.24552       -2.59206       -1.44468
C          3.54325       -3.61688       -0.56904
C          3.27204       -3.47758        0.77783
C          2.69696       -2.31198        1.25073
H          2.48711       -2.19624        2.30108
H          2.42538       -0.61827       -1.63585
C          1.12893        0.15148        2.69532
C         -0.00731       -0.80501        3.01562
C         -1.37262       -0.27160        2.62330
P         -1.69549       -0.20591        0.81471
C         -3.20970        0.74992        0.61863
C         -3.19873        1.95617       -0.04458
C         -4.36535        2.68908       -0.16479
C         -5.53677        2.21427        0.39042
C         -5.54228        1.01237        1.06974
C         -4.37337        0.28165        1.18764
H         -4.36241       -0.65000        1.73120
H         -2.27916        2.31897       -0.47432
C         -1.84644       -1.87745        0.16082
C         -3.04685       -2.36540       -0.30285
C         -3.11798       -3.64865       -0.81370
C         -1.98359       -4.43481       -0.86372
C         -0.77784       -3.93792       -0.41116
C         -0.71281       -2.65518        0.09985
H          0.23057       -2.24065        0.41013
H         -3.92094       -1.73691       -0.28265
Pd        -0.05630        0.49937       -0.68164
Cl         1.44167        1.48727       -2.03422
Cl        -1.66792        0.51998       -2.24746
H         -2.17287       -0.88412        3.04579
H         -1.51410        0.74015        3.00839
H          0.16763       -1.77347        2.53166
H         -0.00344       -1.02111        4.09546
H          2.04171       -0.11268        3.23484
H          0.87104        1.16664        3.00298
H          5.97031        2.31196        0.20987
H          2.70361        4.97625        0.83468
H          3.45749       -2.69753       -2.49591
H          3.50764       -4.27696        1.46111
H         -4.35903        3.62813       -0.69341
H         -6.45457        0.64431        1.50974
H         -4.05704       -4.03168       -1.17810
H          0.11365       -4.54088       -0.46525
H          5.09779        4.60311        0.41109
H          3.99020       -4.52607       -0.93693
H         -6.44697        2.78380        0.29599
H         -2.03759       -5.43356       -1.26531
