171
-217.84872485
P         -1.61557        0.43920       -0.32210
P          1.60179       -0.29328       -0.22541
C         -0.84139        1.49644       -1.55706
C          0.96424       -1.16390       -1.66065
C          0.01301        0.97872       -2.52515
C          0.67473        1.87041       -3.39140
C          0.43597        3.22970       -3.27793
C         -0.43078        3.72197       -2.32599
C         -1.06136        2.84939       -1.46154
C          1.19482       -2.51408       -1.75677
C          0.69938       -3.22711       -2.83109
C         -0.03681       -2.57858       -3.80015
C         -0.28335       -1.21786       -3.71949
C          0.23725       -0.48811       -2.63339
Cl         1.54951        0.47211        2.90974
Cl        -1.65866       -0.18508        2.90910
C         -1.06896       -0.54790       -4.79217
C          1.63256        1.38642       -4.42330
H         -0.61058        4.78195       -2.25077
H         -1.72953        3.22809       -0.70555
H          1.76704       -3.01080       -0.98953
H          0.88935       -4.28472       -2.91298
H          0.94403        3.90594       -3.94472
H         -0.42964       -3.13169       -4.63657
C         -3.41585       -3.44238       -1.79168
C         -2.54100       -3.47213       -0.71257
C         -1.98099       -2.27057       -0.30058
C         -2.28232       -1.10006       -0.95147
C         -3.15047       -1.08592       -2.01562
C         -3.74252       -2.26504       -2.45382
H         -3.87415       -4.35593       -2.12048
H         -1.31979       -2.24289        0.54849
H         -3.37165       -0.14414       -2.48832
C         -4.86395        2.64546        1.94762
C         -3.54168        3.02284        2.14530
C         -2.56005        2.34925        1.42944
C         -2.89852        1.33980        0.56232
C         -4.21082        0.97832        0.38314
C         -5.22536        1.62969        1.07209
H         -5.63438        3.14787        2.50319
H         -1.51921        2.58905        1.56315
H         -4.43656        0.17068       -0.28956
C          4.21463       -3.09737        2.21007
C          2.83513       -3.18650        2.34463
C          2.05277       -2.33933        1.57030
C          2.63496       -1.41143        0.74155
C          4.00139       -1.31911        0.64522
C          4.82223       -2.17016        1.37367
H          4.83571       -3.76820        2.77433
H          0.97957       -2.38449        1.62540
H          4.42482       -0.57087        0.00052
C          3.95752        3.41533       -1.29958
C          2.91974        3.52003       -0.38233
C          2.21537        2.36563       -0.06676
C          2.52306        1.17507       -0.67599
C          3.53261        1.09381       -1.60396
C          4.28116        2.21957       -1.92873
H          4.54458        4.28870       -1.51544
H          1.42464        2.38397        0.66261
H          3.73091        0.14332       -2.06928
Pd        -0.05133        0.12172        1.37483
C         -0.69690       -5.03374       -0.04647
C         -2.20779       -4.75944        0.05414
C         -2.96102       -5.97705       -0.51482
C         -2.61154       -4.58395        1.53045
H         -0.42054       -5.91757        0.52801
H         -0.40693       -5.20242       -1.08268
H         -0.11609       -4.19267        0.32761
H         -2.71379       -6.87945        0.04427
H         -4.03983       -5.83541       -0.45250
H         -2.69396       -6.15169       -1.55694
H         -3.68171       -4.39673        1.61572
H         -2.37751       -5.47748        2.10887
H         -2.09238       -3.74335        1.98830
C         -6.12571       -2.77938       -3.02674
C         -4.77633       -2.29407       -3.58881
C         -4.30222       -3.25651       -4.69371
C         -4.98421       -0.89764       -4.20694
H         -6.04507       -3.78567       -2.61730
H         -6.46972       -2.12125       -2.22936
H         -6.88938       -2.79539       -3.80413
H         -5.00537       -3.27021       -5.52631
H         -3.32929       -2.95565       -5.07941
H         -4.21092       -4.27564       -4.32018
H         -5.35504       -0.19117       -3.46466
H         -4.05573       -0.50650       -4.62026
H         -5.71393       -0.93763       -5.01553
C         -3.62904        3.64849        4.56711
C         -3.20091        4.11810        3.16513
C         -3.94691        5.41365        2.79631
C         -1.68974        4.41851        3.19106
H         -3.12176        2.72074        4.83141
H         -3.38361        4.39560        5.32161
H         -4.70224        3.46688        4.61226
H         -3.69979        6.21667        3.49049
H         -3.67603        5.74048        1.79248
H         -5.02665        5.27235        2.82296
H         -1.11772        3.53629        3.47805
H         -1.34470        4.75415        2.21383
H         -1.46288        5.20548        3.91009
C         -6.88080        0.11348       -0.12682
C         -6.70173        1.24224        0.90820
C         -7.50140        2.46917        0.43301
C         -7.24984        0.75481        2.26165
H         -7.93351       -0.14525       -0.23969
H         -6.50901        0.41711       -1.10521
H         -6.35147       -0.78847        0.18014
H         -8.55175        2.21751        0.28715
H         -7.45124        3.28059        1.15809
H         -7.10872        2.84096       -0.51325
H         -7.19168        1.53753        3.01709
H         -8.29306        0.45175        2.17422
H         -6.67818       -0.10036        2.62177
C          0.71514       -3.92763        3.53719
C          2.21677       -4.19979        3.31860
C          2.91729       -4.10140        4.68820
C          2.39145       -5.61577        2.74498
H          0.15167       -4.07349        2.61814
H          0.30169       -4.60627        4.28300
H          0.54944       -2.90804        3.88521
H          2.45148       -4.76980        5.41213
H          3.96985       -4.37259        4.62188
H          2.85467       -3.08572        5.07840
H          1.90817       -5.69953        1.77185
H          3.44608       -5.85739        2.61535
H          1.95298       -6.36275        3.40645
C          6.81826       -0.99446        0.32081
C          6.35343       -2.10442        1.28406
C          6.89067       -3.45279        0.77094
C          6.93201       -1.80981        2.68025
H          7.90629       -0.95624        0.26945
H          6.44697       -1.17071       -0.68844
H          6.46907       -0.01710        0.65339
H          6.62973       -4.26619        1.44700
H          6.47343       -3.68511       -0.20876
H          7.97645       -3.43074        0.67911
H          6.53941       -0.86994        3.06790
H          6.67703       -2.59640        3.38936
H          8.01857       -1.73305        2.64416
C          2.42758        5.94882       -0.80173
C          2.60863        4.86810        0.28124
C          3.77446        5.25102        1.20901
C          1.31357        4.80013        1.11416
H          1.63801        5.66734       -1.49754
H          2.15826        6.90597       -0.35546
H          3.34158        6.09742       -1.37499
H          3.91999        4.49103        1.97652
H          4.70565        5.34506        0.65112
H          3.58256        6.20177        1.70599
H          1.07589        5.77450        1.54072
H          0.47045        4.49253        0.49609
H          1.41212        4.09640        1.94036
C          5.37124        3.27059       -3.94545
C          5.48159        2.15768       -2.88489
C          5.55832        0.80078       -3.61217
C          6.77330        2.35321       -2.07105
H          4.44383        3.18220       -4.50922
H          5.39319        4.25999       -3.49090
H          6.19902        3.21575       -4.65233
H          6.39242        0.78478       -4.31355
H          5.70902       -0.01650       -2.90757
H          4.64706        0.60545       -4.17650
H          6.87122        1.57837       -1.31149
H          7.65176        2.30851       -2.71455
H          6.77588        3.31823       -1.56513
H         -1.85374       -1.20312       -5.16998
H          2.54947        1.97495       -4.40176
H         -0.42921       -0.28018       -5.63392
H         -1.54518        0.36260       -4.42568
H          1.20530        1.47154       -5.42338
H          1.90798        0.34397       -4.25881
