105
-153.07240209
Cl        -0.78906        2.06671       -2.87684
Pd         0.11207        1.49818       -0.89819
P          1.33948        0.70719        0.91355
N          0.69292       -0.57579        1.92358
C          0.05374       -1.78235        1.67689
C         -0.10879       -2.34313        0.38610
C         -0.87587       -3.51648        0.23121
C         -1.03825       -4.09529       -1.15517
C         -1.62222       -5.51644       -1.19313
C         -2.77837       -5.66448       -0.19986
C         -2.30263       -5.37275        1.23116
C         -1.45391       -4.13178        1.34357
C         -1.23386       -3.59556        2.60526
C         -0.49660       -2.45192        2.76948
H         -0.36412       -2.03379        3.75222
H         -1.66878       -4.08238        3.46174
H         -3.16325       -5.27574        1.90547
H         -3.57857       -4.96356       -0.46852
H         -1.94794       -5.77748       -2.20994
H         -1.67655       -3.41936       -1.73621
C          0.67331       -1.86380       -0.77914
C          0.01431       -1.25371       -1.88094
C          0.74224       -1.03692       -3.05440
C          2.05597       -1.41588       -3.15197
C          2.70240       -2.05032       -2.09839
C          4.11374       -2.53569       -2.29964
C          4.44928       -3.74610       -1.41760
C          4.11076       -3.44692        0.04573
C          2.62819       -3.07206        0.22476
C          2.01330       -2.27643       -0.90569
H          2.03730       -3.98668        0.35484
H          4.74151       -2.62152        0.39398
H          5.50501       -4.03257       -1.52690
H          4.80596       -1.71487       -2.08298
H          2.59840       -1.23770       -4.06495
H          0.25763       -0.54826       -3.88127
N         -1.32520       -0.84678       -1.82558
P         -1.83647        0.19378       -0.49326
C         -2.77361       -0.69998        0.74438
C         -3.58348       -1.72717        0.32371
C         -4.36734       -2.40394        1.24102
C         -4.35148       -2.04452        2.58181
C         -3.53471       -0.99562        2.98343
C         -2.75425       -0.31802        2.06451
H         -2.12033        0.49474        2.37583
H         -3.50822       -0.71717        4.02307
C         -5.15710       -2.80234        3.57842
H         -4.99278       -3.21945        0.92073
H         -3.59229       -1.99778       -0.72034
C         -2.95866        1.47304       -1.07235
C         -2.93408        2.72079       -0.49513
C         -3.80164        3.70048       -0.94181
C         -4.70759        3.43205       -1.95897
C         -4.71870        2.16458       -2.52559
C         -3.84907        1.18599       -2.07869
H         -3.86355        0.19835       -2.51096
H         -5.41013        1.94961       -3.32233
C         -5.61905        4.49645       -2.46261
H         -3.77584        4.68412       -0.50487
H         -2.23130        2.92913        0.29548
H         -1.66189       -0.38139       -2.65868
H          0.90277       -0.34017        2.88606
C          1.28403        2.18837        1.93059
C          0.05199        2.66445        2.31017
C         -0.03810        3.81521        3.07200
C          1.10803        4.50020        3.45217
C          2.34392        3.99942        3.06510
C          2.43036        2.84916        2.30283
H          3.38870        2.46998        1.98881
H          3.23906        4.51915        3.36132
C          1.01538        5.72760        4.29031
H         -1.00149        4.18972        3.37332
H         -0.83490        2.13809        1.99897
C          3.06560        0.39629        0.54232
C          3.61770        0.76391       -0.66150
C          4.96642        0.56572       -0.88983
C          5.77549        0.01138        0.09253
C          5.20284       -0.34408        1.30617
C          3.85112       -0.15027        1.52951
H          3.40359       -0.41875        2.47350
H          5.82030       -0.77923        2.07334
C          7.21981       -0.23990       -0.16710
H          5.40017        0.84583       -1.83460
H          2.99656        1.22200       -1.41303
Cl         1.64150        3.14645       -0.96803
H         -1.72677       -6.22519        1.61073
H         -0.83573       -6.23937       -0.94248
H         -3.22729       -6.66555       -0.26830
H         -0.06406       -4.07986       -1.65987
H          4.37409       -4.30098        0.68537
H          2.49433       -2.50894        1.15625
H          4.26720       -2.77871       -3.35881
H          3.86920       -4.61424       -1.75516
H         -4.58179       -3.63337        3.98892
H         -5.46202       -2.16189        4.40722
H         -6.06161       -3.21062        3.12536
H         -5.87825        5.20032       -1.67051
H         -5.14813        5.05760       -3.27083
H         -6.54828        4.07137       -2.84457
H          0.08901        6.26921        4.09393
H          1.03962        5.47516        5.35127
H          1.84440        6.40674        4.08652
H          7.37012       -1.23679       -0.58402
H          7.62484        0.48529       -0.87423
H          7.80337       -0.16764        0.75173
