171
-217.84550415
P         -1.57856        0.38285       -0.43993
P          1.64805       -0.35136       -0.29429
C         -0.82448        1.39068       -1.72026
C          1.02762       -1.27250       -1.70785
C          0.03830        0.82506       -2.65182
C          0.68669        1.66848       -3.57435
C          0.41461        3.02628       -3.55743
C         -0.46999        3.56281       -2.64594
C         -1.08009        2.74006       -1.71933
C          1.27312       -2.62314       -1.76187
C          0.75163       -3.38526       -2.78859
C         -0.03316       -2.78712       -3.75119
C         -0.29265       -1.42735       -3.71656
C          0.26361       -0.64557       -2.68570
Cl         1.41028        0.20564        2.94209
Cl        -1.72848       -0.51817        2.70167
C         -1.14242       -0.81852       -4.77687
C          1.64573        1.12599       -4.57577
H         -0.67988        4.61991       -2.65174
H         -1.75973        3.15178       -0.99061
H          1.87773       -3.08575       -0.99906
H          0.95346       -4.44299       -2.83364
H          0.90587        3.66587       -4.27124
H         -0.45471       -3.37896       -4.54617
C         -3.73218       -3.33570       -1.84202
C         -2.80508       -3.44238       -0.81211
C         -2.13325       -2.29150       -0.42515
C         -2.38273       -1.09473       -1.04831
C         -3.30114       -1.00330       -2.06467
C         -4.00005       -2.13055       -2.48119
H         -4.27967       -4.20759       -2.14654
H         -1.42581       -2.32360        0.38573
H         -3.47829       -0.04097       -2.51409
C         -4.52474        2.73159        2.08801
C         -3.17186        3.04218        2.17630
C         -2.28830        2.33883        1.36851
C         -2.74295        1.35428        0.52733
C         -4.07995        1.05430        0.45981
C         -5.00224        1.74223        1.23554
H         -5.22140        3.26463        2.70573
H         -1.23159        2.54148        1.41672
H         -4.40682        0.26175       -0.19045
C          4.33961       -2.87425        2.34259
C          3.00322       -3.23379        2.21123
C          2.20710       -2.46823        1.37023
C          2.72458       -1.37727        0.71765
C          4.04173       -1.02541        0.87368
C          4.88156       -1.77554        1.68652
H          4.97976       -3.45518        2.97934
H          1.16745       -2.71290        1.23392
H          4.40564       -0.15063        0.36519
C          3.81905        3.51083       -1.19203
C          2.77852        3.52416       -0.27095
C          2.09961        2.33414       -0.04748
C          2.46754        1.18614       -0.70415
C          3.50451        1.18598       -1.60382
C          4.20342        2.35843       -1.86731
H          4.36023        4.41799       -1.38363
H          1.28319        2.29641        0.65264
H          3.76871        0.26001       -2.08573
Pd        -0.05862       -0.07230        1.26549
C         -2.78920       -4.56642        1.42955
C         -2.51950       -4.75816       -0.07542
C         -1.04648       -5.14482       -0.29076
C         -3.40880       -5.90623       -0.58894
H         -3.82256       -4.26514        1.59965
H         -2.61112       -5.49061        1.97897
H         -2.14464       -3.79839        1.85490
H         -0.38056       -4.36003        0.06462
H         -0.80078       -6.06351        0.24153
H         -0.84253       -5.30249       -1.34922
H         -3.23245       -6.09588       -1.64758
H         -3.19738       -6.82944       -0.04949
H         -4.46495       -5.67632       -0.44920
C         -6.45419       -2.36985       -2.89935
C         -5.09528       -2.06269       -3.55499
C         -4.80683       -3.09777       -4.65880
C         -5.17099       -0.66644       -4.20364
H         -6.46374       -3.36739       -2.46134
H         -6.66888       -1.65481       -2.10523
H         -7.26147       -2.31672       -3.62959
H         -3.83027       -2.92302       -5.10853
H         -4.81621       -4.11337       -4.26546
H         -5.55565       -3.04263       -5.44879
H         -5.42740        0.09573       -3.46815
H         -4.22220       -0.39516       -4.66518
H         -5.93540       -0.64199       -4.98017
C         -3.73624        4.74086        3.98866
C         -2.61759        4.08535        3.15688
C         -1.88472        5.18566        2.36935
C         -1.63243        3.39392        4.11940
H         -4.45166        5.25557        3.34757
H         -4.27162        3.99827        4.57999
H         -3.32367        5.47644        4.67910
H         -2.55744        5.66624        1.65928
H         -1.49374        5.95194        3.03849
H         -1.04684        4.77369        1.81059
H         -2.12838        2.59238        4.66622
H         -0.79227        2.95633        3.58167
H         -1.23157        4.10196        4.84430
C         -6.65449       -0.11259        1.55854
C         -6.48620        1.36059        1.14090
C         -6.96636        1.54350       -0.31126
C         -7.36075        2.23463        2.05969
H         -7.70168       -0.41212        1.52133
H         -6.09433       -0.77722        0.90159
H         -6.29373       -0.26735        2.57516
H         -6.83165        2.57563       -0.63413
H         -6.41062        0.90403       -0.99601
H         -8.02296        1.29422       -0.40735
H         -8.41081        1.95532        1.97385
H         -7.07316        2.11601        3.10417
H         -7.27678        3.28840        1.79447
C          1.03846       -4.06166        3.55143
C          2.39774       -4.44692        2.93148
C          3.31470       -4.94771        4.06438
C          2.19887       -5.58089        1.91190
H          0.30573       -3.80636        2.78772
H          0.62800       -4.88623        4.13386
H          1.14686       -3.20187        4.21221
H          2.84284       -5.76372        4.61163
H          4.25975       -5.32295        3.67286
H          3.52705       -4.14878        4.77465
H          1.55405       -5.26099        1.09485
H          3.15308       -5.88438        1.48162
H          1.74438       -6.45394        2.37986
C          7.24521       -2.59726        1.48873
C          6.35726       -1.40570        1.89230
C          6.58834       -1.06153        3.37471
C          6.76144       -0.18757        1.03748
H          8.30118       -2.35220        1.60158
H          7.03993       -3.47243        2.10392
H          7.07158       -2.87093        0.44816
H          6.36111       -1.91115        4.01760
H          7.62477       -0.77517        3.55249
H          5.95078       -0.23196        3.67991
H          7.81431        0.05448        1.18153
H          6.61045       -0.38694       -0.02333
H          6.18150        0.69410        1.30990
C          2.13804        4.48400        1.96925
C          2.35139        4.79721        0.47406
C          1.03942        5.31208       -0.13813
C          3.41956        5.90287        0.36522
H          1.89021        5.38820        2.52495
H          1.32533        3.77552        2.12042
H          3.04053        4.05652        2.40543
H          0.26125        4.55261       -0.07886
H          0.68612        6.20312        0.38048
H          1.17952        5.56487       -1.18879
H          3.13473        6.77466        0.95420
H          4.38301        5.55145        0.73429
H          3.54354        6.23381       -0.66550
C          5.17723        3.47680       -3.89832
C          5.40576        2.39939       -2.82128
C          5.62048        1.04428       -3.52344
C          6.67319        2.73706       -2.01476
H          6.00572        3.50115       -4.60603
H          4.26352        3.27923       -4.45715
H          5.09023        4.46883       -3.45716
H          6.46320        1.09524       -4.21274
H          5.83511        0.25707       -2.80095
H          4.74088        0.75529       -4.09771
H          7.55166        2.76089       -2.65935
H          6.58599        3.70973       -1.53180
H          6.84469        1.99291       -1.23745
H         -1.99164       -1.46130       -5.00990
H          1.17494        1.03150       -5.55517
H         -0.57343       -0.67143       -5.69580
H         -1.53778        0.14907       -4.46487
H          2.01594        0.14294       -4.28164
H          2.50868        1.78349       -4.68275
