115
-277.94202070
P         -1.67486       -0.75763       -0.07923
P          2.01076        0.23392       -0.12193
C         -2.24502       -2.45689        0.05749
C         -1.33681       -3.46773        0.28421
H         -0.32914       -3.23461        0.58641
C         -1.70055       -4.77579        0.04139
H         -0.97662       -5.57339        0.10587
C         -2.96151       -5.06813       -0.45211
C         -3.90433       -4.05487       -0.55329
H         -4.87917       -4.28466       -0.95256
C         -3.54803       -2.74632       -0.28978
H         -4.24956       -1.94397       -0.45760
C         -2.96424        0.28576        0.63602
C         -3.27876        0.21392        1.97254
H         -2.73635       -0.46227        2.61210
C         -4.28803        0.99747        2.49066
H         -4.55592        0.94565        3.53427
C         -4.98442        1.86300        1.67118
C         -4.66746        1.92697        0.32768
H         -5.22616        2.59795       -0.30577
C         -3.66108        1.13842       -0.18913
H         -3.42194        1.18399       -1.23897
C         -1.43653       -0.30631       -1.83464
C         -0.86638        0.94655       -1.94639
H         -0.57739        1.46733       -1.05184
C         -0.50757        1.48045       -3.18299
C         -0.94434        0.81503       -4.32155
H         -0.71646        1.22409       -5.29164
C         -1.51664       -0.43744       -4.22134
H         -1.73165       -0.99090       -5.11976
C         -1.66339       -1.07178       -2.98713
C          1.75393       -0.38160       -1.82220
C          1.18733       -1.64433       -1.83368
H          0.90518       -2.10130       -0.89991
C          0.82411       -2.26777       -3.02766
C          1.25497       -1.68767       -4.21442
H          1.02045       -2.16644       -5.15046
C          1.82471       -0.43067       -4.21173
H          2.03330        0.05488       -5.14996
C          1.97551        0.29350       -3.02916
C         -1.71554       -2.58407       -2.99574
H         -2.32431       -2.91679       -3.84468
H         -2.27448       -2.93787       -2.13269
C         -0.30008       -3.26942       -3.04864
H         -0.17608       -3.97324       -2.21942
H         -0.21135       -3.89350       -3.94518
C          0.61607        2.47926       -3.26746
H          0.47906        3.23995       -2.49184
H          0.53293        3.03688       -4.20720
C          2.03222        1.80025       -3.14599
H          2.64866        2.06304       -4.01308
H          2.58090        2.20370       -2.29798
C          1.94723        2.02485        0.08364
C          0.77346        2.65637        0.43721
C          3.05783        2.76340       -0.26275
C          0.66591        4.02429        0.29708
C          2.94706        4.13054       -0.41186
C          1.73272        4.76012       -0.18999
C          3.55991       -0.40721        0.54196
C          4.02370       -1.61504        0.07389
C          4.27319        0.28463        1.49300
C          5.20910       -2.13217        0.55561
H          3.46534       -2.14651       -0.67908
C          5.45591       -0.23386        1.97737
H          3.89687        1.22283        1.86826
C          5.92934       -1.44699        1.51359
H          5.60065       -3.06748        0.18813
H          6.02956        0.29984        2.71831
Pd         0.26185       -0.53755        1.24175
Cl        -1.06905       -1.65296        2.67993
Cl         1.73046        0.04662        2.84262
H          3.77026        4.70578       -0.80379
H          3.98264        2.26252       -0.50448
H         -0.27390        4.52835        0.46305
H         -0.07298        2.08549        0.78053
C         -4.61985       -6.79479       -1.29462
C         -3.12705       -6.36629       -1.20289
C         -2.47754       -6.13004       -2.60448
F         -5.12133       -6.79193       -0.05066
F         -5.29371       -5.92150       -2.05571
F         -4.69134       -8.02797       -1.81945
F         -2.45176       -7.34263       -0.59180
F         -3.02441       -5.04112       -3.16231
F         -1.17113       -5.90570       -2.40807
F         -2.65803       -7.20841       -3.37849
C         -5.95410        4.17460        1.80755
C         -6.11299        2.68646        2.23705
C         -7.46381        2.07381        1.76841
F         -4.70958        4.55699        2.13146
F         -6.13105        4.28007        0.48307
F         -6.85431        4.92245        2.46422
F         -6.08734        2.64531        3.57205
F         -8.47846        2.81151        2.24391
F         -7.49131        2.03772        0.42811
F         -7.52881        0.82554        2.25594
C          8.38551       -1.27218        1.17856
C          7.25812       -1.99394        1.97061
C          7.41670       -1.83263        3.51137
F          8.28059        0.05118        1.36993
F          9.58087       -1.71874        1.59217
F          8.20724       -1.55692       -0.12027
F          7.33519       -3.29814        1.69147
F          6.32755       -2.36267        4.08789
F          8.51684       -2.48833        3.91239
F          7.50650       -0.53156        3.82060
C          2.71386        7.02638       -0.76319
C          1.45003        6.11834       -0.78040
C          0.91899        5.85171       -2.22382
F          3.19871        7.02561        0.48738
F          3.63369        6.53516       -1.60509
F          2.36521        8.27139       -1.12358
F          0.48789        6.73354       -0.08856
F          0.75549        7.01196       -2.87376
F          1.78583        5.05737       -2.86690
F         -0.24990        5.20710       -2.10741
