59
-75.80755667
Cl         1.72213        0.54584        2.31940
P          1.62625       -0.04266       -0.88557
P         -1.55580       -0.09659       -0.75209
C          0.61877       -0.00644       -2.43328
H          0.40106        1.03507       -2.67953
H          1.21867       -0.41348       -3.25309
C         -0.65571       -0.77185       -2.22045
H         -0.44746       -1.82836       -2.04093
H         -1.31948       -0.71818       -3.08881
C          2.81467       -1.47086       -0.88319
H          2.77016       -1.90862       -1.88775
C          2.83884        1.35818       -0.76213
H          2.81751        1.67944        0.28658
C         -3.06083       -1.11971       -0.38728
H         -3.42250       -0.77991        0.59104
C         -2.49509        1.41684       -1.27744
H         -1.87002        1.98898       -1.97328
C          4.18227       -0.80408       -0.64542
H          4.42324       -0.86808        0.42466
H          4.97745       -1.36477       -1.15971
C          4.18280        0.68371       -1.08058
H          4.36615        0.75135       -2.16190
H          5.00964        1.23349       -0.60531
C         -4.02745       -0.65863       -1.49415
H         -3.95338       -1.36361       -2.33494
H         -5.06822       -0.73894       -1.14466
C         -3.72011        0.79441       -1.98741
H         -4.59629        1.43980       -1.82914
H         -3.56023        0.79361       -3.07645
C          2.47283       -2.52425        0.16599
H          2.34342       -2.02659        1.13622
H          3.33604       -3.19180        0.29677
C          2.51125        2.53823       -1.66924
H          3.37066        3.22276       -1.69197
H          2.40648        2.17664       -2.70021
C         -2.80973       -2.62487       -0.34159
H         -3.76478       -3.15130       -0.47716
H         -2.19976       -2.91470       -1.20576
C         -2.89534        2.28126       -0.08050
H         -3.70312        2.96111       -0.38598
H         -3.34224        1.63176        0.68352
C          1.24101       -3.34071       -0.18253
H          1.01108       -4.08569        0.58265
H          1.37004       -3.86911       -1.12905
H          0.36720       -2.70031       -0.29006
C          1.26462        3.28814       -1.23266
H          0.40076        2.62464       -1.19745
H          1.02132        4.11252       -1.90683
H          1.38664        3.70554       -0.23124
C         -2.15912       -3.07551        0.95795
H         -1.23555       -2.53045        1.15240
H         -1.92192       -4.14173        0.95292
H         -2.81434       -2.88873        1.81093
C         -1.75778        3.09111        0.52039
H         -2.08427        3.67195        1.38605
H         -0.94112        2.45170        0.85388
H         -1.34846        3.79520       -0.20594
Cl        -1.48597       -0.08506        2.43593
Pd         0.10848        0.01461        0.85927
