59
-75.80681879
Cl         1.60440        0.47310        2.38320
P          1.58171       -0.01319       -0.85979
P         -1.63272       -0.08377       -0.76035
C          0.57105       -0.00130       -2.40507
H          0.32737        1.03247       -2.65902
H          1.17805       -0.40257       -3.22239
C         -0.68105       -0.80027       -2.17493
H         -0.43542       -1.83540       -1.92269
H         -1.32901       -0.82045       -3.05655
C          2.68578       -1.49981       -0.81436
H          2.65973       -1.93872       -1.81916
C          2.85598        1.32705       -0.74150
H          2.81336        1.69074        0.29269
C         -3.12692       -1.10513       -0.36246
H         -3.33359       -0.90454        0.69644
C         -2.53853        1.43626       -1.31324
H         -1.91336        1.97120       -2.03831
C          4.07501       -0.90561       -0.52159
H          4.26107       -0.95962        0.55988
H          4.86193       -1.51740       -0.98824
C          4.17451        0.57265       -0.98505
H          4.40889        0.60653       -2.05807
H          5.00856        1.08728       -0.48378
C         -4.23438       -0.49739       -1.25362
H         -4.55396       -1.24660       -1.99155
H         -5.12896       -0.29660       -0.64591
C         -3.77949        0.80602       -1.97951
H         -4.60016        1.53831       -2.01149
H         -3.54985        0.57896       -3.03205
C          2.20926       -2.51332        0.21743
H          1.16630       -2.77825        0.00197
H          2.18840       -2.03094        1.20385
C          2.60861        2.47927       -1.70774
H          3.50285        3.11716       -1.74261
H          2.50385        2.07503       -2.72296
C         -2.90521       -2.59837       -0.56647
H         -3.86966       -3.11958       -0.48909
H         -2.56743       -2.77092       -1.59638
C         -2.89935        2.34313       -0.13647
H         -3.71288        3.01647       -0.44102
H         -3.32540        1.72200        0.66258
C          3.06526       -3.77022        0.26218
H          2.69823       -4.48926        0.99814
H          4.09980       -3.53750        0.52049
H          3.08051       -4.27094       -0.70774
C          1.39331        3.31176       -1.33353
H          0.49385        2.69777       -1.29030
H          1.20914        4.11713       -2.04818
H          1.51532        3.76651       -0.34853
C         -1.91803       -3.18745        0.42809
H         -2.27774       -3.07815        1.45299
H         -0.95687       -2.67709        0.37580
H         -1.73862       -4.25048        0.25209
C         -1.73692        3.16463        0.39824
H         -0.91528        2.53048        0.72974
H         -1.34362        3.83584       -0.36717
H         -2.03141        3.78084        1.25078
Cl        -1.60069        0.05215        2.39198
Pd         0.03032        0.05117        0.84436
