87
-129.18437266
P         -1.76312       -0.32294        0.06927
P          1.54892        0.27483       -0.21256
C         -1.43952        1.03037       -1.08658
C          1.16896       -0.69787       -1.67785
C         -0.61341        0.94755       -2.20366
C         -0.41729        2.10160       -2.98682
C         -1.04188        3.28281       -2.62459
C         -1.84155        3.35029       -1.50479
C         -2.03599        2.21873       -0.73663
C          1.91754       -1.81511       -1.95589
C          1.63437       -2.57405       -3.07463
C          0.59292       -2.21021       -3.90350
C         -0.17682       -1.08916       -3.63788
C          0.12842       -0.30286       -2.50988
Cl         1.45517        1.43364        2.79979
Cl        -1.37272       -0.11032        3.26434
H         -2.31063        4.27997       -1.22738
H         -2.65180        2.25870        0.14969
H          2.72053       -2.09527       -1.29404
H          2.21774       -3.45369       -3.29186
H         -0.88527        4.16161       -3.22692
H          0.36090       -2.80792       -4.76860
C         -0.66249       -4.54635       -1.23099
C         -0.02507       -3.98252       -0.13425
C         -0.38998       -2.70085        0.25445
C         -1.34398       -1.99673       -0.44437
C         -1.98471       -2.57171       -1.51655
C         -1.64234       -3.85137       -1.91261
H         -0.38478       -5.53694       -1.54826
C          1.04561       -4.70801        0.60234
H          0.07269       -2.25959        1.11765
H         -2.73962       -2.01410       -2.04636
H         -2.13252       -4.30104       -2.76047
C         -6.24561       -0.28251        0.88269
C         -5.76530       -0.14372       -0.40451
C         -4.40216       -0.15184       -0.63680
C         -3.53052       -0.29337        0.41873
C         -4.00980       -0.42917        1.69954
C         -5.37494       -0.43410        1.95260
H         -7.30631       -0.27041        1.06755
H         -6.45112       -0.02723       -1.22763
H         -4.01256       -0.03665       -1.63619
H         -3.31506       -0.51386        2.51532
C         -5.88686       -0.55124        3.34529
C          5.09553       -1.76318        1.81779
C          5.28965       -0.90935        0.75087
C          4.20560       -0.28979        0.15776
C          2.93549       -0.52213        0.63358
C          2.74413       -1.37259        1.69914
C          3.81972       -2.01085        2.30298
H          5.93794       -2.24158        2.28771
H          6.28489       -0.72359        0.38146
H          4.34657        0.37869       -0.67570
H          1.75651       -1.53459        2.09100
C          3.60628       -2.90226        3.47549
C          2.75735        4.45276       -1.54860
C          3.12335        3.35152       -2.29689
C          2.76986        2.08304       -1.87545
C          2.06003        1.92566       -0.70749
C          1.71108        3.02063        0.04744
C          2.05296        4.30286       -0.36226
H          3.01852        5.44266       -1.88200
H          3.67360        3.48021       -3.21454
H          3.02337        1.21550       -2.46421
H          1.18318        2.88097        0.97413
C          1.63372        5.48583        0.43716
Pd        -0.03939        0.34918        1.52737
C          0.44604        2.08463       -4.20077
C         -1.31168       -0.74745       -4.53877
H          1.11103        1.22064       -4.20847
H         -0.15979        2.05190       -5.10711
H          1.06913        2.97873       -4.24749
H         -1.95916        0.00996       -4.09535
H         -0.94919       -0.36505       -5.49376
H         -1.92545       -1.62663       -4.74022
H          1.13502       -5.74038        0.26182
H          2.01177       -4.22217        0.45708
H          0.83645       -4.72648        1.67291
H         -6.01253        0.43443        3.79540
H         -6.85211       -1.05903        3.36891
H         -5.19745       -1.12051        3.97052
H          3.66353       -2.33593        4.40602
H          2.62624       -3.37975        3.43321
H          4.35839       -3.69156        3.51312
H          0.62774        5.80318        0.15880
H          1.63101        5.25633        1.50374
H          2.30918        6.32806        0.28090
