111
-148.55492031
P         -1.68236       -2.73998        0.04348
P         -0.45809        0.13602       -0.56658
C         -1.68899       -2.08575       -1.65037
C         -1.21402       -0.81486       -1.90145
C         -0.56438       -4.20386        0.18924
C          0.63675       -3.87344        1.04944
C         -2.14363       -2.86739       -2.69281
H         -2.47944       -3.87251       -2.49607
C         -2.14449       -2.36417       -3.98236
H         -2.50328       -2.97306       -4.79609
C         -1.68099       -1.08593       -4.22854
H         -1.67737       -0.69624       -5.23318
C         -1.20499       -0.31202       -3.18531
H         -0.81144        0.67651       -3.36352
Pd        -1.27362       -0.88350        1.33213
Cl        -1.68885       -2.06990        3.18992
Cl        -0.82483        1.01058        2.46446
C         -1.48277       -5.29485        0.77607
C         -3.28530       -3.49325        0.57811
H          1.29609       -4.73700        1.16440
H          1.22058       -3.05618        0.62129
H          0.32203       -3.55996        2.04686
H         -1.31554       -5.34796        1.86064
H         -1.19928       -6.28432        0.38664
H         -3.41870       -3.18898        1.62503
C         -2.98632       -5.00147        0.50318
C         -4.45695       -3.02732       -0.25971
H         -0.26008       -4.45965       -0.83423
H         -3.25893       -5.36876       -0.49579
H         -3.62883       -5.55388        1.20592
H         -5.39548       -3.46155        0.09229
H         -4.55523       -1.93963       -0.23189
H         -4.33457       -3.31761       -1.30358
C         -0.92776        4.65814       -0.78848
C          0.36453        4.09133       -0.64851
C          0.47073        2.71238       -0.58671
C         -0.63072        1.90872       -0.72301
C         -1.86810        2.44780       -0.95910
C         -2.04427        3.82002       -1.04123
O         -1.10940        6.05850       -0.63601
C          1.63666        4.94262       -0.51313
H          1.42315        2.24468       -0.41082
H         -2.70284        1.77614       -1.06586
C         -3.43986        4.37645       -1.36446
C          3.75916       -1.42391        0.14317
C          3.19339       -0.48282        1.04102
C          1.91117       -0.02817        0.78870
C          1.23680       -0.40050       -0.34349
C          1.81537       -1.23354       -1.26428
C          3.09091       -1.73612       -1.06882
O          4.96995       -2.08677        0.47798
C          3.91407        0.00700        2.30578
H          1.39226        0.58671        1.50369
H          1.24182       -1.51106       -2.13101
C          3.70200       -2.65262       -2.13971
C          1.51256        6.25884       -1.30175
C          1.89269        5.23573        0.97314
C          2.86050        4.19043       -1.08466
C         -3.34423        5.70896       -2.12981
C         -4.22112        3.39550       -2.26821
C         -4.22433        4.57079       -0.05802
C         -1.37968        6.46375        0.70019
H          2.43832        6.83187       -1.25599
H          1.28867        6.05879       -2.34904
H          0.71824        6.88622       -0.90544
H          1.06763        5.79042        1.41337
H          2.00381        4.30851        1.53475
H          2.80156        5.82218        1.10514
H          3.12063        3.32258       -0.48072
H          2.66774        3.85443       -2.10315
H          3.73678        4.83795       -1.10619
H         -4.33242        6.06876       -2.41530
H         -2.87571        6.48159       -1.52547
H         -2.75182        5.58905       -3.03625
H         -5.15713        3.84115       -2.60425
H         -3.63857        3.13472       -3.15146
H         -4.47599        2.47707       -1.74167
H         -3.72280        5.27412        0.60224
H         -5.22601        4.95108       -0.25661
H         -4.32109        3.62645        0.47712
H         -1.40047        5.59755        1.36286
H         -0.61012        7.15916        1.03474
H         -2.34095        6.97577        0.73996
C          4.78931       -3.28308        1.22637
C          5.43961        0.03619        2.10351
C          3.48044        1.45022        2.65224
C          3.54844       -0.91087        3.48237
C          5.23333       -2.50397       -2.18984
C          3.31890       -4.10973       -1.83828
C          3.16770       -2.28490       -3.54287
H          5.70055        0.65504        1.24563
H          5.94335        0.44203        2.98045
H          5.83710       -0.96000        1.92799
H          3.61329        2.10995        1.79549
H          2.43771        1.49662        2.96228
H          4.07584        1.84614        3.47455
H          3.85363       -1.93710        3.29219
H          4.03224       -0.58007        4.40093
H          2.47140       -0.91170        3.64924
H          5.65951       -3.10589       -2.99206
H          5.51237       -1.46473       -2.36035
H          5.69418       -2.82417       -1.25884
H          3.68486       -4.42061       -0.86278
H          2.23596       -4.23125       -1.83982
H          3.73496       -4.78541       -2.58508
H          2.10889       -2.51818       -3.64571
H          3.69411       -2.84439       -4.31583
H          3.30709       -1.22317       -3.74466
H          5.21975       -4.12351        0.68214
H          5.30391       -3.19859        2.18335
H          3.72884       -3.46773        1.40021
