105
-153.07259634
Cl        -0.87363        2.05985       -2.86343
Pd         0.09313        1.49786       -0.90929
P          1.36247        0.73513        0.87907
N          0.63822       -0.50311        1.89073
C          0.03366       -1.73054        1.65950
C         -0.10334       -2.32128        0.37915
C         -0.83427       -3.51942        0.24210
C         -0.96982       -4.12885       -1.13405
C         -1.50373       -5.56992       -1.14646
C         -2.66435       -5.73621       -0.16132
C         -2.21464       -5.39692        1.26773
C         -1.40465       -4.12870        1.36152
C         -1.21472       -3.55874        2.61316
C         -0.51203       -2.39121        2.75985
H         -0.40234       -1.94886        3.73478
H         -1.64538       -4.03897        3.47551
H         -3.08592       -5.31034        1.92966
H         -3.48545       -5.06982       -0.45366
H         -1.80958       -5.86419       -2.16037
H         -1.62824       -3.48658       -1.73060
C          0.65965       -1.83694       -0.79660
C         -0.01898       -1.22882       -1.88827
C          0.69083       -1.00658       -3.07193
C          2.00581       -1.37617       -3.18770
C          2.67060       -2.00915       -2.14456
C          4.08241       -2.48412       -2.36559
C          4.43422       -3.70040       -1.49793
C          4.11136       -3.41549       -0.02819
C          2.62928       -3.04944        0.17152
C          1.99884       -2.24465       -0.94379
H          2.04452       -3.96855        0.29749
H          4.74184       -2.58977        0.31917
H          5.48996       -3.98072       -1.62202
H          4.77185       -1.66082       -2.14910
H          2.53473       -1.19198       -4.10739
H          0.19196       -0.51870       -3.89073
N         -1.35858       -0.82647       -1.81055
P         -1.85058        0.19105       -0.45245
C         -2.81018       -0.73650        0.74378
C         -3.56444       -1.79057        0.28803
C         -4.36323       -2.49623        1.16987
C         -4.41774       -2.13918        2.51029
C         -3.65780       -1.06200        2.94708
C         -2.86338       -0.35486        2.06298
H         -2.27927        0.48513        2.39914
H         -3.68797       -0.78363        3.98665
C         -5.23781       -2.92644        3.47168
H         -4.94534       -3.33233        0.82223
H         -3.51768       -2.05908       -0.75542
C         -2.96367        1.49720       -0.98573
C         -2.90972        2.72698       -0.37284
C         -3.77024        3.73170       -0.77554
C         -4.68960        3.50928       -1.79188
C         -4.74257        2.25326       -2.38147
C         -3.88014        1.24950       -1.97880
H         -3.92203        0.27250       -2.43285
H         -5.46302        2.06631       -3.15934
C         -5.62956        4.58499       -2.21223
H         -3.73071        4.69795       -0.30236
H         -2.19267        2.89929        0.41418
H         -1.71402       -0.35846       -2.63439
H          0.83108       -0.25110        2.85256
C          1.30777        2.24461        1.85153
C          2.42767        3.01840        2.04165
C          2.33562        4.19250        2.76607
C          1.11970        4.60349        3.29593
C          0.00093        3.80538        3.09744
C          0.09635        2.63095        2.37313
H         -0.77008        2.01267        2.20574
H         -0.94543        4.10968        3.51088
C          1.02738        5.85865        4.09198
H          3.20993        4.80148        2.92057
H          3.36700        2.70774        1.61444
C          3.09556        0.36662        0.60935
C          3.72849        0.71727       -0.55900
C          5.08165        0.47873       -0.70822
C          5.81508       -0.09697        0.32002
C          5.16215       -0.43218        1.49865
C          3.80597       -0.19775        1.64233
H          3.29669       -0.44849        2.55940
H          5.72033       -0.88335        2.30114
C          7.26430       -0.38935        0.14401
H          5.57900        0.74685       -1.62473
H          3.16757        1.20170       -1.34031
Cl         1.72845        3.00966       -1.21793
H         -1.61837       -6.22267        1.67385
H         -0.69531       -6.25934       -0.87223
H         -3.07760       -6.75357       -0.21192
H          0.00536       -4.08942       -1.63545
H          4.38667       -4.27340        0.60116
H          2.50172       -2.49804        1.11084
H          4.22585       -2.71690       -3.42845
H          3.85441       -4.56846       -1.83616
H         -5.62829       -2.29122        4.26795
H         -6.08846       -3.39411        2.97397
H         -4.64189       -3.71575        3.93208
H         -5.18013        5.57103       -2.08667
H         -5.90457        4.47897       -3.26253
H         -6.54464        4.55367       -1.61930
H          1.70027        6.62243        3.69954
H          0.01588        6.26669        4.06988
H          1.29446        5.67719        5.13398
H          7.78698       -0.38388        1.10149
H          7.40841       -1.36958       -0.31271
H          7.74026        0.35397       -0.49704
