171
-217.84440078
P         -1.63033        0.35612       -0.34123
P          1.66395       -0.35102       -0.29849
C         -0.88902        1.39739       -1.60066
C          0.98271       -1.26656       -1.68309
C         -0.04334        0.84626       -2.55641
C          0.58842        1.70620       -3.47451
C          0.32419        3.06519       -3.42466
C         -0.53871        3.58770       -2.48482
C         -1.13928        2.74764       -1.56848
C          1.22647       -2.61596       -1.76128
C          0.66315       -3.36560       -2.77478
C         -0.15689       -2.75444       -3.69965
C         -0.41196       -1.39438       -3.64080
C          0.18216       -0.62508       -2.62170
Cl         1.56517        0.24731        2.87733
Cl        -1.58263       -0.36241        2.88066
C         -1.31240       -0.77776       -4.65357
C          1.51251        1.17290       -4.51170
H         -0.74209        4.64587       -2.46217
H         -1.81128        3.14786       -0.82709
H          1.86170       -3.08618       -1.02836
H          0.85984       -4.42338       -2.83765
H          0.80280        3.71711       -4.13584
H         -0.61284       -3.33672       -4.48263
C         -3.80816       -3.24141       -1.99514
C         -4.14170       -1.98070       -2.47308
C         -3.43862       -0.89174       -1.97048
C         -2.45863       -1.07440       -1.02571
C         -2.14165       -2.32692       -0.56284
C         -2.80743       -3.44359       -1.05332
H         -4.35855       -4.09170       -2.35337
H         -3.65675        0.11036       -2.29917
H         -1.37639       -2.42121        0.18802
C         -4.50965        2.66066        2.30528
C         -5.00078        1.62542        1.51975
C         -4.10269        0.94335        0.70909
C         -2.77822        1.30264        0.67449
C         -2.31303        2.33510        1.45058
C         -3.16919        3.02746        2.29636
H         -5.19347        3.18267        2.94764
H         -4.42859        0.11442        0.10702
H         -1.26710        2.58867        1.41184
C          4.28850       -2.85602        2.43253
C          2.96235       -3.22965        2.24906
C          2.19035       -2.47929        1.37171
C          2.72267       -1.39250        0.72316
C          4.03146       -1.03169        0.92677
C          4.84262       -1.75462        1.79105
H          4.90177       -3.43087        3.09901
H          1.15549       -2.72947        1.20984
H          4.41981       -0.16607        0.41979
C          3.96565        3.36213       -1.46259
C          4.35932        2.14079       -1.99714
C          3.61420        1.01731       -1.65997
C          2.54777        1.12149       -0.80072
C          2.18083        2.33266       -0.27015
C          2.87955        3.48570       -0.60505
H          4.52509        4.24597       -1.70436
H          3.87657        0.04903       -2.05307
H          1.34837        2.36684        0.41117
Pd        -0.01795       -0.03137        1.30101
C         -5.42502       -0.36844       -3.96477
C         -5.29936       -1.82244       -3.46947
C         -6.61378       -2.22011       -2.77362
C         -5.07005       -2.73412       -4.69038
H         -4.50448       -0.03671       -4.44444
H         -6.23025       -0.27629       -4.69348
H         -5.64928        0.30969       -3.14165
H         -6.79208       -1.59471       -1.89966
H         -7.46260       -2.10809       -3.44796
H         -6.58454       -3.25717       -2.44081
H         -4.13192       -2.49180       -5.18734
H         -5.03477       -3.78416       -4.40340
H         -5.87353       -2.61794       -5.41757
C         -2.21025       -5.77968       -1.76037
C         -2.49951       -4.86230       -0.55708
C         -3.71248       -5.39653        0.22458
C         -1.26938       -4.87780        0.36870
H         -3.07709       -5.86617       -2.41406
H         -1.38322       -5.38886       -2.35181
H         -1.94356       -6.78336       -1.42973
H         -3.52186       -6.40063        0.60304
H         -3.93655       -4.75156        1.07409
H         -4.59976       -5.43842       -0.40635
H         -1.44811       -4.28982        1.26838
H         -1.03252       -5.89445        0.68204
H         -0.39704       -4.47316       -0.14337
C         -6.81152        0.74337        3.00753
C         -6.48652        1.24512        1.58930
C         -6.83408        0.13140        0.58160
C         -7.34869        2.47865        1.26197
H         -6.62401        1.51636        3.75198
H         -7.85749        0.44790        3.08755
H         -6.19556       -0.11959        3.25990
H         -7.89542       -0.11272        0.62455
H         -6.60735        0.44428       -0.43743
H         -6.27847       -0.78141        0.79583
H         -7.10677        2.86493        0.27198
H         -8.40917        2.22754        1.27618
H         -7.18820        3.27949        1.98260
C         -1.36671        3.66116        3.92872
C         -2.61379        4.16006        3.17088
C         -3.64743        4.63683        4.20957
C         -2.23543        5.34631        2.26805
H         -0.98402        4.43018        4.59933
H         -1.60633        2.78089        4.52476
H         -0.56263        3.39120        3.24611
H         -3.22086        5.40470        4.85488
H         -4.52403        5.06712        3.72600
H         -3.97146        3.81201        4.84403
H         -1.81040        6.16315        2.85103
H         -1.50303        5.04850        1.51971
H         -3.11150        5.72488        1.74177
C          2.05485       -5.54008        1.95074
C          2.33263       -4.42684        2.97492
C          1.01424       -3.98691        3.64294
C          3.26174       -4.98399        4.07100
H          2.98256       -5.88182        1.49210
H          1.57405       -6.39668        2.42278
H          1.40452       -5.18374        1.15399
H          0.28218       -3.65597        2.90844
H          0.56872       -4.80728        4.20514
H          1.19002       -3.16078        4.33157
H          2.77914       -5.80055        4.60798
H          4.18553       -5.37476        3.64513
H          3.51421       -4.21210        4.79784
C          6.96896       -2.10028        3.14922
C          6.30094       -1.32119        1.99958
C          6.34808        0.18070        2.34523
C          7.08850       -1.57969        0.70408
H          7.02433       -3.16520        2.92484
H          7.98726       -1.74827        3.31406
H          6.41804       -1.97022        4.08058
H          5.97127        0.79279        1.52692
H          5.74281        0.39081        3.22678
H          7.36903        0.50109        2.55200
H          6.65550       -1.03079       -0.13040
H          8.12810       -1.26970        0.80857
H          7.07422       -2.63911        0.44878
C          6.56296        0.97462       -2.26494
C          5.59653        1.99381       -2.89657
C          6.34420        3.33118       -3.06213
C          5.16735        1.49977       -4.28873
H          7.47349        0.88080       -2.85650
H          6.84457        1.28410       -1.25857
H          6.10720       -0.01244       -2.20065
H          6.67489        3.71712       -2.09798
H          7.22781        3.20494       -3.68771
H          5.71036        4.07985       -3.53699
H          4.63849        0.54949       -4.22495
H          4.50920        2.22400       -4.76708
H          6.03313        1.35725       -4.93525
C          2.30105        5.86410       -1.17057
C          2.51397        4.85802       -0.02389
C          3.65786        5.34006        0.88575
C          1.21931        4.79060        0.80795
H          1.99751        6.83686       -0.78404
H          3.21219        6.00757       -1.74979
H          1.52487        5.51419       -1.84999
H          4.58839        5.44187        0.32827
H          3.42390        6.30846        1.32761
H          3.82925        4.63110        1.69563
H          1.33718        4.12903        1.66575
H          0.95118        5.77639        1.18761
H          0.38905        4.42887        0.20251
H         -1.59761        0.23695       -4.37305
H          0.96917        0.90586       -5.41884
H         -2.22898       -1.35835       -4.75663
H         -0.83045       -0.73646       -5.63135
H          2.03398        0.28348       -4.15517
H          2.26487        1.91455       -4.78089
