72
-98.10072784
Fe        -0.00462        2.85966       -0.00097
P          1.82283       -0.00398       -0.05987
P         -1.82842       -0.02468        0.06509
C          1.40109        1.60271        0.71607
C          0.38818        1.81043        1.73422
C          0.34361        3.22281        2.06171
C          1.31315        3.89541        1.21780
C          1.99703        2.89502        0.41534
C         -1.42471        1.58676       -0.70914
C         -2.04034        2.86959       -0.40905
C         -1.37083        3.88095       -1.20800
C         -0.37460        3.22036       -2.03034
C         -0.42045        1.80081       -1.73421
C          3.15945       -0.78770        0.96553
C          4.36878        0.07502        0.56674
C          2.89544        0.33627       -1.54338
C          4.30746        0.50296       -0.92947
C         -3.16258       -0.82093       -0.95424
C         -4.38208        0.01873       -0.53700
C         -2.89230        0.29658        1.55913
C         -4.31246        0.44298        0.95970
H         -0.21944        1.02797        2.18439
H         -0.31591        3.69448        2.79244
H          1.53148        4.96564        1.22469
H          2.79411        3.08125       -0.30718
H         -2.84133        3.04271        0.31186
H          0.19824        1.02710       -2.18459
Cl         1.53758       -3.06045       -0.50289
Cl        -1.48009       -3.07016        0.55102
Pd         0.00401       -1.47853       -0.03363
H          3.29480       -1.81167        0.59790
C          2.86219       -0.80253        2.46714
H          2.54320        1.27253       -1.99255
C          2.84856       -0.79112       -2.57351
H          5.30918       -0.45253        0.79050
H          4.37631        0.96886        1.20790
H          4.65923        1.53872       -1.04607
H          5.01639       -0.10358       -1.51019
H         -1.59855        4.94900       -1.21096
H          0.28336        3.70279       -2.75618
H          3.81095       -0.76363        3.02039
H          3.68260       -0.66622       -3.27822
H         -3.27618       -1.85038       -0.59442
C         -2.88454       -0.81613       -2.45999
H         -2.55003        1.23721        2.00684
C         -2.81965       -0.83175        2.58641
H         -5.31550       -0.52448       -0.75230
H         -4.41299        0.91466       -1.17454
H         -4.67912        1.47278        1.08310
H         -5.00609       -0.17620        1.54555
H         -3.84163       -0.79049       -2.99952
H         -3.01915       -1.78101        2.07243
C          2.06903       -2.02383        2.90804
H          1.14398       -2.12573        2.34275
H          2.63642       -2.94170        2.74275
H          1.80750       -1.98514        3.96786
C          1.54428       -0.87556       -3.34666
H          1.35630        0.03960       -3.91130
H          1.54303       -1.70456       -4.05809
H          0.70061       -1.02537       -2.67533
C         -2.07449       -2.01658       -2.92614
H         -1.13277       -2.09886       -2.38610
H         -2.61609       -2.94818       -2.75144
H         -1.84073       -1.96698       -3.99199
C         -1.50180       -0.90744        3.33669
H         -1.47852       -1.74284        4.04019
H         -0.66875       -1.04095        2.64873
H         -1.31487        0.00465        3.90660
H          2.33656        0.12267        2.73566
H          3.04728       -1.73990       -2.05833
H         -2.38128        0.12194       -2.72669
H         -3.64298       -0.71528        3.30501
