111
-148.55491142
P         -2.50600       -2.05668       -1.05750
P          0.13443       -0.39603       -0.53344
C         -1.36594       -1.72477       -2.42823
C         -0.19689       -1.03658       -2.18517
C         -3.28386       -3.73060       -1.19189
C         -2.69992       -4.69160       -0.17944
C         -1.66379       -2.14358       -3.70920
H         -2.58851       -2.66351       -3.89862
C         -0.78125       -1.87917       -4.74247
H         -1.01262       -2.20609       -5.74309
C          0.39342       -1.19507       -4.49410
H          1.07897       -0.98755       -5.29916
C          0.68475       -0.76808       -3.21090
H          1.58940       -0.21888       -3.00114
Pd        -1.34113       -1.51155        0.85672
Cl        -3.08524       -2.25889        2.05143
Cl        -0.05036       -0.91752        2.59865
C         -4.78234       -3.42861       -1.00263
C         -4.01561       -0.98744       -1.07813
H         -3.16134       -5.67910       -0.25374
H         -1.62244       -4.80842       -0.31846
H         -2.86098       -4.32897        0.83681
H         -5.03585       -3.55753        0.05867
H         -5.39429       -4.16580       -1.54436
H         -4.14695       -0.62776       -0.04870
C         -5.13519       -1.97936       -1.44452
C         -3.85803        0.17293       -2.03650
H         -3.09145       -4.08316       -2.21312
H         -5.28755       -1.95472       -2.53235
H         -6.09138       -1.65652       -1.00528
H         -3.02219        0.81271       -1.74595
H         -3.66098       -0.18433       -3.04897
H         -4.75952        0.78908       -2.07040
C         -1.15902        3.95223       -0.13862
C         -1.06053        3.37235       -1.43007
C         -0.65454        2.05177       -1.52807
C         -0.43016        1.29905       -0.40568
C         -0.63412        1.82343        0.84262
C         -1.03361        3.13617        1.01420
O         -1.34151        5.35396       -0.00098
C         -1.34981        4.16479       -2.71450
H         -0.49575        1.59396       -2.48827
H         -0.45941        1.18343        1.68989
C         -1.28386        3.65364        2.43862
C          4.43709       -0.78064        0.90253
C          3.79340        0.48268        0.91829
C          2.48563        0.55444        0.47151
C          1.84608       -0.54537       -0.03714
C          2.49516       -1.74680       -0.14624
C          3.80734       -1.88802        0.27724
O          5.69301       -0.94456        1.54523
C          4.46565        1.75737        1.45177
H          1.93720        1.47762        0.53461
H          1.95334       -2.58134       -0.55708
C          4.51139       -3.24111        0.08951
C         -2.44410        5.22157       -2.47799
C         -0.05700        4.83987       -3.19664
C         -1.86344        3.22893       -3.83242
C          0.03616        4.17674        3.02557
C         -2.34971        4.76398        2.44898
C         -1.81057        2.51590        3.34406
C         -0.12662        6.08957        0.07448
H         -2.69560        5.73934       -3.40326
H         -3.35042        4.75556       -2.09267
H         -2.12291        5.97110       -1.75893
H         -0.22827        5.40025       -4.11539
H          0.32959        5.52942       -2.45008
H          0.71544        4.09666       -3.39314
H         -1.09252        2.53630       -4.16666
H         -2.72094        2.65040       -3.49070
H         -2.17569        3.80384       -4.70395
H         -0.10654        4.54471        4.04122
H          0.78414        3.38477        3.05566
H          0.43984        4.98957        2.42642
H         -2.57094        5.08536        3.46645
H         -2.01910        5.63750        1.89295
H         -3.27539        4.41076        1.99583
H         -2.11497        2.90382        4.31575
H         -2.67441        2.02909        2.89220
H         -1.04942        1.75914        3.52740
H          0.73008        5.42107       -0.02054
H         -0.09934        6.83140       -0.72355
H         -0.07361        6.61391        1.02840
C          5.59770       -1.31524        2.91496
C          4.18762        1.88403        2.95741
C          5.98209        1.73648        1.18904
C          3.90191        3.01074        0.74225
C          6.02501       -3.05604       -0.12289
C          4.25256       -4.12298        1.32053
C          3.96878       -3.96919       -1.16140
H          3.11538        1.92073        3.14865
H          4.59126        1.03661        3.50598
H          4.63469        2.79150        3.36246
H          6.18540        1.60788        0.12644
H          6.44900        2.66597        1.51389
H          6.46622        0.92176        1.72155
H          4.46682        3.89992        1.02125
H          3.96100        2.90304       -0.34049
H          2.86325        3.19604        1.01249
H          6.21584       -2.39596       -0.96836
H          6.49895       -2.62069        0.75320
H          6.51259       -4.01034       -0.32051
H          4.63894       -3.66043        2.22543
H          3.18390       -4.28301        1.46167
H          4.72868       -5.09696        1.21060
H          2.93545       -4.28564       -1.02778
H          4.55248       -4.86534       -1.37084
H          4.02003       -3.32397       -2.03807
H          6.08867       -0.56347        3.53267
H          4.55202       -1.40485        3.21230
H          6.10384       -2.26749        3.07252
