72
-98.10010474
Fe        -0.00335        2.79908        0.01938
P          1.91158       -0.01396       -0.03502
P         -1.80364       -0.07412        0.04652
C          1.42783        1.58236        0.72018
C          0.39398        1.75974        1.72514
C          0.29309        3.17577        2.02943
C          1.26675        3.87658        1.21141
C          1.98113        2.89205        0.41518
C         -1.39708        1.55981       -0.68123
C         -1.99922        2.83965       -0.33647
C         -1.32049        3.87025       -1.10424
C         -0.33003        3.22286       -1.94641
C         -0.40176        1.79150       -1.71157
C          3.33613       -0.68905        0.94229
C          4.50954        0.12936        0.37638
C          2.85659        0.27478       -1.61067
C          4.30787        0.50010       -1.12286
C         -3.01325       -0.90198       -1.08515
C         -4.30874       -0.13514       -0.77462
C         -3.00748        0.21574        1.43765
C         -4.36636        0.34657        0.70762
H         -0.19528        0.95993        2.17407
H         -0.39058        3.63079        2.74963
H          1.45090        4.95344        1.21497
H          2.78383        3.09510       -0.29697
H         -2.79663        2.99922        0.39215
H          0.19519        1.02266       -2.19956
Cl         1.64367       -3.07451       -0.24475
Cl        -1.48210       -3.03632        0.53217
Pd         0.08705       -1.47900        0.08150
H          3.44135       -1.74613        0.67211
C          3.17055       -0.54275        2.45176
H          2.45046        1.17956       -2.07808
C          2.76048       -0.90861       -2.57416
H          5.45876       -0.40832        0.52544
H          4.60257        1.04854        0.97328
H          4.61624        1.54069       -1.30315
H          4.98463       -0.10533       -1.74203
H         -1.53388        4.94132       -1.07042
H          0.32851        3.72127       -2.66184
H          4.14348       -0.70943        2.93474
H          3.53826       -0.80527       -3.34378
H         -3.10401       -1.94606       -0.76439
C         -2.56530       -0.83379       -2.53883
H         -2.71757        1.15797        1.91824
C         -3.02235       -0.90843        2.47010
H         -5.18846       -0.74867       -1.02282
H         -4.36196        0.73309       -1.44752
H         -4.73008        1.38362        0.75664
H         -5.11683       -0.24124        1.25467
H         -2.44423        0.21930       -2.82482
H         -3.20548       -1.85724        1.94934
C          2.13765       -1.48869        3.03678
H          1.15817       -1.31191        2.59757
H          2.39495       -2.53025        2.83542
H          2.03820       -1.37439        4.11858
C          1.40779       -1.06748       -3.24668
H          1.15333       -0.18896       -3.84241
H          1.38294       -1.93171       -3.91443
H          0.61697       -1.20773       -2.51191
C         -3.52320       -1.53344       -3.49095
H         -3.63958       -2.58636       -3.22746
H         -4.51618       -1.08165       -3.45855
H         -3.17688       -1.48960       -4.52606
C         -1.75561       -1.00090        3.30025
H         -1.80812       -1.80182        4.04127
H         -0.89446       -1.20425        2.66705
H         -1.56013       -0.06973        3.83529
H          2.90981        0.49885        2.68035
H          3.02045       -1.82290       -2.02472
H         -1.56379       -1.27424       -2.62485
H         -3.88759       -0.77239        3.13388
