45
-71.82185039
C          0.37599        1.48801        3.14094
P         -0.18290        0.77387        1.55871
P         -0.14081        0.80156       -1.54810
C          0.46033        1.54411       -3.10151
Cl         2.96670       -0.05957        1.66783
H         -0.45485        1.54916        3.83792
H          1.24960        0.92704       -3.52143
Cl         3.00679       -0.03227       -1.58990
C         -1.35203        1.83682        0.68740
C         -1.33329        1.84913       -0.68988
C         -2.24331        2.61391       -1.39084
C         -3.17144        3.37587       -0.70336
C         -3.19022        3.36354        0.67811
C         -2.28094        2.58921        1.37688
H         -2.22769        2.60498       -2.46850
H         -3.88270        3.97584       -1.24683
H         -3.91614        3.95391        1.21265
H         -2.29462        2.56109        2.45424
Pd         1.51437        0.41111        0.02480
H          0.85448        2.53765       -2.90804
H          0.77732        2.48379        2.97581
H         -0.35090        1.61573       -3.82026
C         -1.74788       -3.42394       -1.99134
C         -2.62618       -2.37316       -1.81066
C         -2.14241       -1.08235       -1.69569
C         -0.78793       -0.85481       -1.76771
C          0.09121       -1.89726       -1.94849
C         -0.38864       -3.18888       -2.06094
H         -2.12408       -4.43046       -2.07456
H         -3.68600       -2.55843       -1.75018
H         -2.81231       -0.25291       -1.53586
H          1.14940       -1.69016       -1.98053
H          0.29728       -4.00886       -2.19603
C         -1.79704       -3.45993        1.87998
C         -0.44043       -3.22542        1.99069
C          0.04085       -1.93163        1.91541
C         -0.83423       -0.88650        1.73036
C         -2.18602       -1.11344        1.61757
C         -2.67129       -2.40647        1.69532
H         -2.17421       -4.46807        1.93408
H          0.24252       -4.04738        2.12876
H          1.09759       -1.72459        1.97976
H         -2.85225       -0.28156        1.45510
H         -3.72888       -2.59122        1.60274
H          1.15204        0.86188        3.57194
