72
-98.10080463
Fe        -0.00500        2.82392        0.02392
P          1.80888       -0.06740        0.08498
P         -1.83508       -0.05052        0.02623
C          1.39006        1.58172        0.75945
C          0.37835        1.85506        1.76595
C          0.36542        3.28299        2.02921
C          1.35020        3.89655        1.15733
C          2.00796        2.84661        0.39746
C         -1.43289        1.60879       -0.65020
C         -2.01143        2.87303       -0.21942
C         -1.41503        3.94125       -1.00354
C         -0.46379        3.34110       -1.92002
C         -0.48061        1.90428       -1.70686
C          3.22821       -0.75355        1.06201
C          4.44357       -0.30079        0.23637
C          2.65284        0.09003       -1.56300
C          4.12224       -0.28211       -1.27992
C         -3.15731       -0.77529       -1.05840
C         -4.38414        0.03578       -0.60799
C         -2.92122        0.18139        1.52101
C         -4.32660        0.39312        0.90713
H         -0.25565        1.10945        2.24634
H         -0.28311        3.80177        2.73824
H          1.59252        4.96089        1.11702
H          2.81952        2.97881       -0.32114
H         -2.77396        2.99509        0.55262
H          0.08942        1.17066       -2.27533
Cl         1.58663       -3.10370       -0.15572
Cl        -1.58898       -3.12988        0.25413
Pd        -0.01625       -1.53064        0.04409
H          3.13682       -1.84534        1.03678
C          3.26061       -0.26778        2.50688
H          2.56437        1.14376       -1.85259
C          2.00868       -0.80438       -2.61613
H          5.31182       -0.94362        0.44892
H          4.73553        0.70704        0.56386
H          4.80129        0.39792       -1.81551
H          4.31942       -1.27849       -1.69800
H         -1.64889        5.00518       -0.92405
H          0.14029        3.87273       -2.65874
H          4.22522       -0.54290        2.95571
H          2.13161       -1.85226       -2.31213
H         -3.27615       -1.82648       -0.77188
C         -2.85938       -0.66855       -2.55236
H         -2.57290        1.08302        2.03858
C         -2.89416       -1.01138        2.47560
H         -5.31265       -0.50325       -0.85266
H         -4.41946        0.95932       -1.20454
H         -4.66613        1.42694        1.06879
H         -5.04715       -0.22934        1.45600
H         -3.80088       -0.76403       -3.11105
H         -3.11294       -1.92147        1.90218
C          2.12219       -0.82069        3.34501
H          2.13407       -1.91217        3.35956
H          2.16525       -0.47425        4.38007
H          1.15994       -0.51552        2.93772
C          2.57502       -0.58698       -4.01105
H          3.64690       -0.78995       -4.04165
H          2.09778       -1.23267       -4.75176
H          2.43408        0.44571       -4.33585
C         -1.86790       -1.71090       -3.04315
H         -0.92556       -1.64695       -2.50219
H         -2.25033       -2.72178       -2.88970
H         -1.64533       -1.59989       -4.10679
C         -1.59282       -1.17242        3.24086
H         -1.35995       -0.27855        3.82239
H         -1.62886       -2.01481        3.93550
H         -0.75965       -1.35285        2.56416
H          3.24197        0.82989        2.51261
H          0.92600       -0.63876       -2.62361
H         -2.49762        0.34419       -2.77105
H         -3.72535       -0.91412        3.18803
