111
-148.55406810
P         -2.46755       -2.16519       -0.62540
P          0.06218       -0.27160       -0.67737
C         -1.67064       -1.77929       -2.20436
C         -0.57752       -0.94080       -2.22463
C         -2.72157       -3.98602       -0.41572
C         -1.94534       -4.49758        0.77860
C         -2.14632       -2.32191       -3.38093
H         -2.98667       -2.99607       -3.35475
C         -1.53582       -2.00505       -4.58195
H         -1.90831       -2.42556       -5.50177
C         -0.44999       -1.15112       -4.60224
H          0.02506       -0.90284       -5.53708
C          0.03218       -0.61980       -3.41943
H          0.88299        0.04202       -3.42077
Pd        -1.23436       -1.15729        1.03996
Cl        -2.77964       -1.69495        2.57010
Cl         0.14216       -0.14472        2.49820
C         -4.25340       -4.12342       -0.27488
C         -4.21526       -1.57299       -0.48067
H         -0.87601       -4.29738        0.67409
H         -2.28378       -4.00903        1.69416
H         -2.07656       -5.57417        0.91128
H         -4.48377       -4.91949        0.44774
H         -4.68877       -4.45726       -1.22807
H         -4.20144       -0.71108        0.20039
C         -4.92207       -2.78675        0.15577
C         -4.78640       -1.18570       -1.82885
H         -2.36308       -4.46209       -1.33853
H         -5.98789       -2.77867       -0.11625
H         -4.89242       -2.70149        1.25211
H         -4.87511       -2.06103       -2.47429
H         -5.78353       -0.74936       -1.73267
H         -4.14613       -0.46610       -2.34290
C         -1.20979        4.00118        0.22105
C          0.15804        3.64439        0.33521
C          0.52125        2.34123        0.04143
C         -0.39658        1.44047       -0.43064
C         -1.70103        1.80680       -0.64054
C         -2.13332        3.09305       -0.35782
O         -1.66101        5.24966        0.72621
C          1.23706        4.62644        0.81709
H          1.52763        2.00143        0.21114
H         -2.38683        1.05831       -0.99871
C         -3.60046        3.46578       -0.62111
C          4.51245       -1.00378       -0.00756
C          4.09910       -0.09887       -1.01873
C          2.74159        0.12014       -1.18984
C          1.81463       -0.58230       -0.46320
C          2.21025       -1.54308        0.43038
C          3.55059       -1.80003        0.66336
O          5.88283       -1.08612        0.35682
C          5.10052        0.64977       -1.91344
H          2.39005        0.85939       -1.88819
H          1.44991       -2.07978        0.97059
C          3.93328       -2.89350        1.67265
C          0.90694        6.06856        0.39186
C          1.35981        4.53611        2.34580
C          2.60728        4.27599        0.19380
C         -3.74358        4.95685       -0.97653
C         -4.15986        2.66483       -1.81701
C         -4.43768        3.13180        0.62345
C         -2.04840        5.21431        2.09437
H          0.77999        6.13016       -0.68846
H         -0.01156        6.41933        0.85542
H          1.70370        6.75406        0.67953
H          1.61794        3.52238        2.65140
H          2.13344        5.20833        2.71596
H          0.42461        4.79914        2.83364
H          3.34567        5.04377        0.42385
H          2.99474        3.33470        0.58063
H          2.53094        4.19875       -0.89054
H         -4.77537        5.20266       -1.22651
H         -3.44661        5.59390       -0.14742
H         -3.11788        5.20883       -1.83206
H         -5.15111        3.02266       -2.09459
H         -3.51170        2.76057       -2.68773
H         -4.25873        1.60936       -1.57431
H         -4.36397        2.07135        0.86386
H         -4.09543        3.69046        1.49105
H         -5.48887        3.36950        0.46275
H         -1.91587        4.21075        2.50081
H         -1.44511        5.92081        2.66417
H         -3.09352        5.50908        2.18688
C          6.26670       -0.17258        1.37689
C          4.47801        0.94878       -3.29620
C          5.48529        1.98187       -1.25309
C          6.35989       -0.20001       -2.16383
C          4.02292       -2.27426        3.07586
C          2.86693       -4.01281        1.69696
C          5.27038       -3.55638        1.29572
H          5.22369        1.36266       -3.97465
H          4.08256        0.03941       -3.74804
H          3.67113        1.67678       -3.22627
H          6.20264        2.52806       -1.86511
H          4.60750        2.61271       -1.12134
H          5.93038        1.82427       -0.27381
H          6.90394       -0.38457       -1.24085
H          6.09240       -1.16516       -2.59266
H          7.04015        0.30052       -2.85245
H          4.27964       -3.02755        3.82014
H          4.77728       -1.49215        3.11424
H          3.07003       -1.82843        3.36047
H          2.67711       -4.38972        0.69230
H          3.19881       -4.84959        2.31114
H          1.92480       -3.66384        2.11718
H          6.09155       -2.84524        1.33552
H          5.22681       -3.95978        0.28462
H          5.50876       -4.37281        1.97698
H          7.07047        0.46635        1.01140
H          5.41752        0.44371        1.67507
H          6.63699       -0.72329        2.24137
