105
-153.06570270
Cl        -0.79457        2.50808       -2.70810
Pd        -0.06338        1.68142       -0.74312
P          1.13386        0.60750        0.99101
N          0.50494       -0.79144        1.86484
C         -0.05343       -2.02822        1.56200
C         -0.06056       -2.60884        0.27116
C         -0.72979       -3.83080        0.05813
C         -0.71285       -4.44753       -1.31972
C         -1.84781       -5.45590       -1.54926
C         -1.90302       -6.47020       -0.40255
C         -2.13182       -5.76798        0.94650
C         -1.36478       -4.47897        1.11955
C         -1.30493       -3.91568        2.38766
C         -0.66046       -2.72548        2.60567
H         -0.65091       -2.29171        3.59059
H         -1.79156       -4.42009        3.20536
H         -3.19968       -5.55109        1.07056
H         -2.68136       -7.22389       -0.58795
H         -2.80325       -4.91929       -1.60635
H         -0.75207       -3.65637       -2.07790
C          0.69799       -2.00819       -0.85123
C          0.00539       -1.23341       -1.81461
C          0.72046       -0.71992       -2.89971
C          2.04087       -1.04204       -3.08327
C          2.70776       -1.88268       -2.19784
C          4.11956       -2.30058       -2.51637
C          4.52176       -3.61115       -1.82449
C          4.20458       -3.54698       -0.32710
C          2.71046       -3.27857       -0.07268
C          2.04470       -2.34923       -1.06099
H          2.16540       -4.22969       -0.07641
H          4.80235       -2.75003        0.12927
H          5.58552       -3.83298       -1.99102
H          4.80417       -1.49920       -2.21929
H          2.57109       -0.66069       -3.93934
H          0.20516       -0.08780       -3.60116
N         -1.39160       -1.04626       -1.72769
P         -1.96325        0.31456       -0.77686
C         -2.58342       -0.12235        0.84067
C         -2.40309        0.77206        1.86762
C         -2.89295        0.47572        3.12735
C         -3.57616       -0.71043        3.35872
C         -3.76203       -1.59161        2.30225
C         -3.27274       -1.29442        1.04336
H         -3.42501       -1.97610        0.22264
H         -4.28445       -2.51731        2.47357
C         -4.06376       -1.05141        4.72350
H         -2.75321        1.16832        3.93979
H         -1.89083        1.70211        1.67544
C         -3.20311        1.26509       -1.64905
C         -3.55350        0.87543       -2.91844
C         -4.49487        1.60223       -3.62537
C         -5.08242        2.72803       -3.06341
C         -4.71873        3.09986       -1.77555
C         -3.77720        2.37169       -1.07085
H         -3.48709        2.66224       -0.07387
H         -5.17600        3.96598       -1.32852
C         -6.11078        3.50075       -3.81371
H         -4.77484        1.30113       -4.62032
H         -3.07783        0.00972       -3.35119
H         -1.93670       -1.80885       -1.34407
H          0.68795       -0.61147        2.84465
C          1.21614        1.92218        2.22673
C          0.30757        1.95674        3.25761
C          0.37941        2.95085        4.21591
C          1.36804        3.92249        4.15170
C          2.29369        3.86019        3.11969
C          2.21671        2.86340        2.16456
H          2.93554        2.81858        1.36247
H          3.07554        4.59849        3.06748
C          1.46163        4.98230        5.19357
H         -0.33274        2.97571        5.02307
H         -0.44967        1.19551        3.32099
C          2.84843        0.31785        0.55249
C          3.40543        0.80643       -0.60524
C          4.75604        0.63759       -0.84501
C          5.56228       -0.01344        0.07869
C          4.98447       -0.49487        1.24531
C          3.63161       -0.32492        1.48184
H          3.18134       -0.68369        2.39420
H          5.59963       -1.00408        1.96742
C          7.00965       -0.23058       -0.19492
H          5.19341        1.01616       -1.75308
H          2.78699        1.33361       -1.31205
Cl         1.56660        3.22761       -0.69653
H         -1.87406       -6.44347        1.77222
H         -1.73454       -5.96317       -2.51781
H         -0.95820       -7.02723       -0.36780
H          0.25403       -4.94241       -1.46835
H          4.52343       -4.47100        0.17530
H          2.56713       -2.86983        0.93534
H          4.23057       -2.39302       -3.60434
H          3.97070       -4.44516       -2.27709
H         -4.29720       -0.15199        5.29499
H         -4.96878       -1.65878        4.67780
H         -3.30837       -1.61372        5.27423
H         -7.10946        3.10730       -3.61938
H         -6.10090        4.55266       -3.52492
H         -5.93266        3.45199       -4.88885
H          2.09904        4.65992        6.01802
H          1.88130        5.90165        4.78283
H          0.47849        5.22136        5.60144
H          7.17293       -1.19834       -0.67130
H          7.40613        0.54102       -0.85626
H          7.59173       -0.20693        0.72737
