45
-71.81637932
C          0.68737        1.74982        3.00513
P         -0.05194        0.81935        1.61956
P         -0.16634        0.77725       -1.52231
C          0.53112        1.76487       -2.88876
Cl         3.07760        0.00652        1.58143
H          1.08268        2.69426        2.64223
H          1.32332        1.20602       -3.37881
Cl         2.88765       -0.32286       -1.67732
C         -1.32471        1.77172        0.77244
C         -1.37911        1.74665       -0.60330
C         -2.36492        2.44419       -1.27140
C         -3.30159        3.16671       -0.55346
C         -3.25074        3.18548        0.82696
C         -2.26144        2.48362        1.49306
H         -2.39852        2.41698       -2.34860
H         -4.07275        3.71214       -1.07215
H         -3.98317        3.74406        1.38620
H         -2.21811        2.48006        2.57018
Pd         1.51135        0.25785       -0.00270
H          0.94098        2.69348       -2.50192
H          1.49828        1.17590        3.44448
H         -0.24169        1.99296       -3.61709
C         -1.88884       -3.17581       -2.96026
C         -0.52146       -3.00168       -2.87511
C         -0.00911       -1.78891       -2.45376
C         -0.86245       -0.76174       -2.12364
C         -2.22588       -0.92959       -2.20760
C         -2.74231       -2.14191       -2.62761
H         -2.29092       -4.12112       -3.28633
H          0.14509       -3.80863       -3.13149
H          1.05438       -1.63396       -2.36415
H         -2.87951       -0.11819       -1.93212
H         -3.80916       -2.27968       -2.69177
C         -1.79928       -3.22930        2.72674
C         -1.83963       -2.76782        1.42605
C         -1.30207       -1.53108        1.12207
C         -0.72901       -0.76717        2.11117
C         -0.68444       -1.22247        3.40904
C         -1.22271       -2.45891        3.71816
H         -2.21644       -4.19324        2.96840
H         -2.28350       -3.36762        0.64864
H         -1.31336       -1.15823        0.11278
H         -0.22867       -0.61464        4.17330
H         -1.19009       -2.82126        4.73256
H         -0.06028        1.94874        3.76755
