111
-148.55645654
P         -2.74144       -1.77349        0.42978
P          0.14066       -0.62757       -0.16887
C         -1.89256       -2.24102       -1.10199
C         -0.61379       -1.78155       -1.33271
C         -3.74761       -3.16443        1.12009
C         -3.06336       -3.80689        2.30697
C         -2.51533       -3.04309       -2.03675
H         -3.52213       -3.38448       -1.86029
C         -1.84906       -3.38920       -3.19979
H         -2.33430       -4.01538       -3.93059
C         -0.56527       -2.93109       -3.42667
H         -0.04814       -3.19804       -4.33359
C          0.05263       -2.12012       -2.49192
H          1.04727       -1.73917       -2.66172
Pd        -1.11386       -0.84840        1.77412
Cl        -2.62705       -0.70897        3.42339
Cl         0.58060        0.07443        2.92122
C         -5.09058       -2.48311        1.44246
C         -4.05702       -0.49012        0.20628
H         -3.65982       -4.62526        2.71690
H         -2.08335       -4.20465        2.03271
H         -2.90940       -3.08032        3.10604
H         -5.07094       -2.14368        2.48735
H         -5.91452       -3.21053        1.38314
H         -3.87497        0.26748        0.98044
C         -5.35282       -1.26627        0.50944
C         -4.00485        0.12886       -1.17364
H         -3.87464       -3.89195        0.30846
H         -5.78334       -1.61853       -0.43803
H         -6.10822       -0.59419        0.94422
H         -3.05148        0.63147       -1.34523
H         -4.11599       -0.63484       -1.94551
H         -4.80229        0.86235       -1.31340
C         -1.28332        3.54859       -1.28726
C         -0.85341        3.28072        0.03743
C         -0.41612        2.00290        0.33584
C         -0.34823        1.03338       -0.62860
C         -0.65314        1.31794       -1.93333
C         -1.08192        2.58094       -2.30529
O         -1.95551        4.76401       -1.58335
C         -0.91058        4.32770        1.15950
H         -0.13687        1.73359        1.33940
H         -0.57217        0.52866       -2.66006
C         -1.35741        2.86523       -3.78963
C          4.68182       -0.94929       -0.15882
C          3.93331       -1.61448        0.84623
C          2.55122       -1.52833        0.80241
C          1.92358       -0.75250       -0.13595
C          2.64639       -0.02098       -1.04210
C          4.03025       -0.06827       -1.05897
O          6.07631       -1.18878       -0.28364
C          4.59731       -2.42533        1.97042
H          1.94161       -2.06129        1.51142
H          2.10802        0.59506       -1.74179
C          4.79589        0.81531       -2.05629
C          0.20056        4.06930        2.20287
C         -0.68842        5.74721        0.60756
C         -2.27339        4.23766        1.86334
C         -2.80581        2.47559       -4.12213
C         -1.11504        4.34759       -4.12676
C         -0.40496        2.03966       -4.68473
C         -3.36904        4.68808       -1.44536
H          0.24729        4.88169        2.92762
H          0.02334        3.15242        2.76301
H          1.17488        3.99379        1.72089
H         -1.48109        6.03467       -0.07865
H         -0.66686        6.48169        1.41225
H          0.25692        5.80567        0.06913
H         -2.34175        4.95992        2.67632
H         -3.08843        4.43281        1.17043
H         -2.42539        3.24276        2.28166
H         -3.03073        2.66775       -5.17088
H         -2.97378        1.41605       -3.93052
H         -3.51405        3.03752       -3.51771
H         -0.10271        4.64261       -3.85258
H         -1.24596        4.53374       -5.19245
H         -1.80660        4.99448       -3.59296
H         -0.50737        2.33050       -5.72997
H          0.63334        2.19695       -4.39365
H         -0.61905        0.97348       -4.62765
H         -3.70477        5.42285       -0.71373
H         -3.84328        4.91610       -2.39975
H         -3.66694        3.69020       -1.12081
C          6.40335       -2.27713       -1.13833
C          4.76276       -3.88396        1.51864
C          5.96511       -1.82900        2.34985
C          3.72604       -2.39823        3.24733
C          6.15792        1.24584       -1.48230
C          4.99402        0.04482       -3.37028
C          4.00478        2.10924       -2.35785
H          3.79589       -4.32426        1.27606
H          5.38942       -3.95348        0.63273
H          5.22083       -4.48598        2.30299
H          5.86208       -0.78082        2.62855
H          6.40559       -2.36251        3.19174
H          6.66662       -1.88623        1.52127
H          3.47631       -1.37428        3.52420
H          2.79820       -2.95243        3.11473
H          4.25294       -2.85317        4.08571
H          6.80775        0.38981       -1.31835
H          6.67270        1.92498       -2.16145
H          6.02812        1.75428       -0.52752
H          5.56489       -0.86672       -3.21034
H          4.03304       -0.23712       -3.80012
H          5.52647        0.65160       -4.10225
H          3.09387        1.90442       -2.91841
H          4.60093        2.79630       -2.95796
H          3.73210        2.62096       -1.43518
H          7.02718       -1.92292       -1.95880
H          6.96764       -3.02372       -0.57979
H          5.49686       -2.73139       -1.54032
