72
-98.10299341
Fe        -0.02041        2.83864       -0.01349
P          1.82722       -0.00548       -0.05315
P         -1.82907       -0.03187        0.06572
C          1.40035        1.60772        0.70640
C          0.39105        1.82057        1.72723
C          0.31771        3.24371        2.00110
C          1.29662        3.90907        1.16122
C          1.99270        2.89712        0.38492
C         -1.42383        1.58451       -0.69933
C         -2.03720        2.86668       -0.38961
C         -1.36729        3.88447       -1.18143
C         -0.37177        3.23112       -2.01149
C         -0.41021        1.81059       -1.71395
C          3.15616       -0.78709        0.98378
C          4.36781        0.07536        0.59194
C          2.91104        0.33056       -1.53010
C          4.32021        0.49149       -0.90785
C         -3.17289       -0.81291       -0.95253
C         -4.38719        0.02490       -0.51714
C         -2.88124        0.28457        1.56981
C         -4.30790        0.42683        0.98480
H         -0.21323        1.04305        2.19036
H         -0.35117        3.72606        2.71715
H          1.50233        4.98177        1.14457
H          2.79026        3.07462       -0.33908
H         -2.84132        3.03452        0.32947
H          0.20874        1.03995       -2.17077
Cl         1.54941       -3.05727       -0.50374
Cl        -1.51005       -3.05312        0.51733
Pd         0.01019       -1.48397       -0.03250
H          3.29486       -1.81142        0.61833
C          2.84674       -0.80070        2.48330
H          2.56500        1.26868       -1.98018
C          2.86480       -0.79426       -2.56267
H          5.30698       -0.44843        0.82936
H          4.36637        0.97407        1.22630
H          4.68092        1.52344       -1.03060
H          5.02817       -0.12566       -1.47841
H         -1.59745        4.95224       -1.17804
H          0.28576        3.71873       -2.73473
H          3.79001       -0.74524        3.04443
H          3.70324       -0.67200       -3.26260
H         -3.28753       -1.84633       -0.60492
C         -2.90486       -0.78998       -2.45929
H         -2.53792        1.22667        2.01358
C         -2.79458       -0.84244        2.59745
H         -5.32365       -0.51196       -0.73521
H         -4.41827        0.93014       -1.14134
H         -4.68317        1.45099        1.12766
H         -4.99031       -0.20823        1.56673
H         -3.86562       -0.77391       -2.99261
H         -2.99189       -1.79323        2.08556
C          2.06874       -2.03278        2.92184
H          1.15205       -2.15340        2.34647
H          2.65321       -2.94190        2.76808
H          1.79468       -1.99294        3.97844
C          1.56392       -0.86927       -3.34236
H          1.38419        0.04822       -3.90592
H          1.56085       -1.69704       -4.05521
H          0.71634       -1.01462       -2.67504
C         -2.07931       -1.97343       -2.94072
H         -1.13369       -2.04528       -2.40613
H         -2.60535       -2.91487       -2.77129
H         -1.85217       -1.91075       -4.00732
C         -1.47108       -0.90905        3.33859
H         -0.64143       -1.03155        2.64451
H         -1.28877        0.00235        3.91111
H         -1.43531       -1.74706        4.03847
H          2.30479        0.11730        2.74395
H          3.05590       -1.74520       -2.04866
H         -2.41723        0.15800       -2.72009
H         -3.61355       -0.73057        3.32172
