87
-129.18197235
P         -1.71561       -0.29942        0.03047
P          1.54231        0.31982       -0.25772
C         -1.41499        1.02877       -1.16358
C          1.21215       -0.68582       -1.70874
C         -0.56924        0.94838       -2.26777
C         -0.37118        2.09992       -3.05405
C         -1.03484        3.26986       -2.72687
C         -1.86648        3.33219       -1.63059
C         -2.04638        2.20894       -0.84674
C          1.97055       -1.80075       -1.96757
C          1.71724       -2.55997       -3.09302
C          0.70048       -2.19481       -3.95139
C         -0.07821       -1.07539       -3.70554
C          0.18943       -0.29503       -2.56310
Cl         1.43927        1.40281        2.83321
Cl        -1.14213       -0.47655        3.28360
H         -2.36527        4.25367       -1.37882
H         -2.67807        2.25083        0.02817
H          2.76491       -2.07402       -1.29324
H          2.30901       -3.43727       -3.29671
H         -0.87952        4.14532       -3.33440
H          0.49611       -2.78929       -4.82563
C         -0.80005       -4.58036       -1.19237
C         -0.31927       -4.09525        0.01582
C         -0.62016       -2.78574        0.37009
C         -1.36675       -1.98899       -0.46766
C         -1.87326       -2.49075       -1.64279
C         -1.58350       -3.79114       -2.01106
H         -0.56240       -5.58961       -1.48264
C          0.51962       -4.95132        0.89712
H         -0.30829       -2.40088        1.32632
H         -2.47928       -1.85926       -2.27200
H         -1.96115       -4.18414       -2.94072
C         -6.13749       -0.11271        1.10612
C         -5.73628       -0.07244       -0.21468
C         -4.39068       -0.12591       -0.52904
C         -3.45825       -0.21920        0.47843
C         -3.85866       -0.26184        1.79216
C         -5.20400       -0.20077        2.12914
H         -7.18480       -0.07772        1.35374
H         -6.47032       -0.00080       -1.00048
H         -4.06173       -0.09024       -1.55582
H         -3.11619       -0.34532        2.56528
C         -5.63269       -0.27245        3.55268
C          4.95905       -1.50064        2.14857
C          5.08976       -0.23378        1.61572
C          4.05592        0.31402        0.88048
C          2.90373       -0.40881        0.67752
C          2.77110       -1.67039        1.20956
C          3.79577       -2.23408        1.95943
H          5.76295       -1.92944        2.72226
H          5.99405        0.32994        1.77668
H          4.13974        1.30713        0.47045
H          1.86533       -2.22595        1.04035
C          3.64872       -3.60185        2.52705
C          2.63829        4.53050       -1.56495
C          3.21729        3.44089       -2.18548
C          2.88900        2.16089       -1.77870
C          1.99290        1.98470       -0.75062
C          1.42531        3.06747       -0.12098
C          1.72891        4.35992       -0.53004
H          2.89097        5.52818       -1.88121
H          3.91958        3.58678       -2.98977
H          3.31873        1.29735       -2.26191
H          0.74188        2.91159        0.69625
C          1.11466        5.52943        0.15463
Pd         0.01421        0.27475        1.51829
C          0.55021        2.09672       -4.22473
C         -1.18077       -0.72872       -4.64415
H         -0.00881        2.04496       -5.15976
H          1.15441        3.00480       -4.24546
H          1.23597        1.24955       -4.19267
H         -1.78569       -1.60700       -4.87429
H         -1.84456        0.02543       -4.21971
H         -0.78447       -0.33988       -5.58296
H          0.15713       -5.98022        0.90438
H          1.55481       -4.96135        0.55342
H          0.50738       -4.58932        1.92607
H         -5.82761       -1.30473        3.84652
H         -4.86278        0.12567        4.21526
H         -6.54376        0.30402        3.71920
H          4.40128       -3.79697        3.29223
H          2.66851       -3.72765        2.98893
H          3.75749       -4.35871        1.74907
H          1.07471        6.39744       -0.50494
H          0.09431        5.30597        0.46993
H          1.68828        5.80410        1.04087
