111
-148.55701468
P         -2.55137       -1.93449       -1.17174
P          0.17663       -0.48567       -0.44224
C         -1.33131       -1.59854       -2.47112
C         -0.12588       -1.01856       -2.13858
C         -3.44541       -3.52907       -1.46023
C         -2.94461       -4.62279       -0.54239
C         -1.60370       -1.91116       -3.78763
H         -2.55544       -2.34507       -4.04681
C         -0.66107       -1.64967       -4.76715
H         -0.87322       -1.89357       -5.79532
C          0.54908       -1.07442       -4.42977
H          1.28159       -0.86847       -5.19278
C          0.81550       -0.75313       -3.11100
H          1.74727       -0.28634       -2.83224
Pd        -1.42328       -1.59825        0.81219
Cl        -3.22439       -2.41820        1.86577
Cl        -0.17996       -1.17080        2.63250
C         -4.91881       -3.13346       -1.25045
C         -3.97594       -0.75303       -1.15701
H         -3.09182       -4.35003        0.50333
H         -3.47466       -5.56241       -0.71468
H         -1.87670       -4.80348       -0.68630
H         -5.18618       -3.31629       -0.20047
H         -5.57981       -3.78509       -1.84205
H         -4.09764       -0.43794       -0.11190
C         -5.16167       -1.63511       -1.59181
C         -3.71567        0.44002       -2.05103
H         -3.27062       -3.79927       -2.50928
H         -5.30477       -1.52558       -2.67563
H         -6.09505       -1.27448       -1.13344
H         -3.52578        0.12094       -3.07750
H         -4.56906        1.12187       -2.06668
H         -2.84175        1.00179       -1.71549
C         -1.18540        3.83525        0.04069
C         -0.87066        3.33786       -1.24990
C         -0.44425        2.02542       -1.36163
C         -0.38665        1.20599       -0.26555
C         -0.77515        1.65573        0.96758
C         -1.22680        2.95067        1.14863
O         -1.42106        5.22313        0.22870
C         -0.95159        4.20749       -2.51388
H         -0.14244        1.62417       -2.31286
H         -0.70837        0.97222        1.79574
C         -1.73403        3.37183        2.53630
C          4.53867       -0.69672        0.83549
C          4.01944        0.49276        0.26358
C          2.68371        0.51400       -0.10006
C          1.89866       -0.60283        0.02004
C          2.42129       -1.78554        0.47145
C          3.74951       -1.87583        0.85571
O          5.83332       -0.69622        1.41966
C          4.86298        1.76266        0.06992
H          2.22867        1.41682       -0.46982
H          1.76684       -2.63748        0.53849
C          4.29851       -3.23085        1.32906
C          0.39281        4.92057       -2.72439
C         -1.24888        3.34024       -3.75876
C         -2.08937        5.23849       -2.40395
C         -2.82096        4.45617        2.42542
C         -2.37344        2.16792        3.26700
C         -0.55382        3.88544        3.37451
C         -0.25477        5.96825        0.55588
H          1.20059        4.19647       -2.82925
H          0.37197        5.53611       -3.62334
H          0.63354        5.56454       -1.88200
H         -0.41496        2.68367       -4.00252
H         -2.13537        2.72647       -3.60214
H         -1.42721        3.96688       -4.63231
H         -3.03960        4.74171       -2.21071
H         -1.91021        5.94213       -1.59477
H         -2.18776        5.81325       -3.32452
H         -3.22531        4.70754        3.40560
H         -2.42728        5.37008        1.98791
H         -3.64234        4.11254        1.79748
H         -2.85202        2.48642        4.19265
H         -3.13161        1.69419        2.64390
H         -1.63239        1.41603        3.53368
H          0.20517        3.11125        3.48504
H         -0.08226        4.74605        2.90596
H         -0.88190        4.18144        4.37056
H          0.62009        5.31704        0.57586
H         -0.10549        6.75518       -0.18329
H         -0.38087        6.43741        1.53142
C          5.84659       -0.34608        2.79804
C          4.34809        2.58116       -1.13684
C          4.76228        2.63621        1.32973
C          6.33375        1.41305       -0.22000
C          5.79490       -3.37301        0.99623
C          4.07561       -3.36524        2.84319
C          3.56888       -4.39394        0.61914
H          5.02062        3.40989       -1.35718
H          4.28192        1.95796       -2.02832
H          3.36595        3.01073       -0.94432
H          5.34020        3.55307        1.21644
H          3.72610        2.91198        1.52499
H          5.13474        2.11045        2.20548
H          6.40867        0.76113       -1.08970
H          6.91845        2.31112       -0.41769
H          6.79334        0.90020        0.62111
H          6.39207       -2.63613        1.52724
H          6.16614       -4.35917        1.27398
H          5.96529       -3.23450       -0.07089
H          4.59066       -2.57857        3.38905
H          3.01503       -3.29398        3.08347
H          4.44166       -4.32429        3.20869
H          4.04027       -5.34767        0.85538
H          3.59642       -4.26598       -0.46267
H          2.52797       -4.46719        0.93047
H          4.83439       -0.13767        3.14700
H          6.27040       -1.16456        3.37965
H          6.47126        0.53466        2.94590
