72
-108.39689022
Cl         1.82228       -0.64890        2.73084
Cl        -1.17664        0.46527        2.67563
P         -1.13764        1.12750       -0.27575
P          2.27172       -0.07789       -0.34000
C          3.26559        1.52564       -0.13614
C          3.63004        1.70942        1.33820
C          4.52638        1.46671       -0.99120
C          3.35202       -1.62085       -0.05483
C          4.15149       -1.95264       -1.32177
C          1.47904       -0.39364       -2.02455
C          1.52883        0.76604       -2.99782
C         -1.10845       -0.21850       -1.49914
C          0.06951       -0.95466       -1.95822
C         -0.41272       -2.04009       -2.81469
C         -1.85880       -1.95722       -2.88940
C         -2.28579       -0.82054       -2.09583
C          2.40278        2.70975       -0.55222
H          4.30592        0.93807        1.69696
H          4.12946        2.66729        1.49265
H          5.05919        2.41832       -0.95460
H          4.29396        1.25866       -2.03450
C          4.32350       -1.45795        1.11048
H          4.93138       -2.68312       -1.10020
H          4.63529       -1.07060       -1.73788
H          2.10173       -1.19178       -2.43883
H          1.17852        0.46113       -3.98609
H          2.53434        1.16713       -3.11853
H          0.86714        1.56495       -2.67150
H          0.21900       -2.72557       -3.38303
H         -2.50981       -2.60778       -3.47810
Pd         0.51522        0.31057        1.19112
H         -3.31266       -0.49226       -1.92188
C          2.37930       -2.75067        0.24529
H          3.52677       -2.39638       -2.09627
H          5.11099       -0.74294        0.88000
H          3.81261       -1.14155        2.01719
H          4.81347       -2.40709        1.33228
H          1.88160       -2.58400        1.19983
H          1.62125       -2.82742       -0.53545
H          2.89908       -3.70891        0.30712
H          2.74191        1.69791        1.97007
H          5.21375        0.69957       -0.63876
H          2.91362        3.65191       -0.34622
H          2.17270        2.70043       -1.61428
H          1.46921        2.71483        0.00746
C         -2.82909        1.20952        0.37055
C         -3.29950        2.18845        1.21024
C         -4.63321        1.88654        1.48548
C         -4.92379        0.73392        0.79849
O         -3.82524        0.30810        0.10945
H         -2.73497        3.01970        1.59896
H         -5.30277        2.44627        2.11794
H         -5.87873        0.22303        0.79482
C         -0.75340        2.74098       -0.98191
C         -0.68492        3.89363       -0.23861
C         -0.37013        4.92941       -1.11936
C         -0.26005        4.36405       -2.36604
O         -0.48911        3.01942       -2.29510
H         -0.82831        3.97299        0.82701
H         -0.23894        5.96954       -0.86941
H         -0.02431        4.89264       -3.28135
Fe        -1.27178       -2.16325       -0.95656
C         -2.20840       -2.04586        0.86666
C         -0.88359       -2.61674        0.98650
C         -0.82079       -3.80518        0.15510
C         -2.10907       -3.95095       -0.49920
C         -2.97125       -2.87277       -0.04693
H         -2.56413       -1.14805        1.37449
H         -0.10708       -2.24874        1.65947
H          0.02382       -4.49269        0.06898
H         -2.39591       -4.75861       -1.17694
H         -4.01155       -2.71078       -0.33807
