111
-148.55754896
P         -2.34442       -2.47077       -0.40045
P         -0.08877       -0.24937       -0.49252
C         -1.63494       -1.98161       -1.98984
C         -0.69332       -0.97740       -2.02895
C         -2.27685       -4.29964       -0.14584
C         -1.27288       -4.64336        0.93324
C         -2.05776       -2.57928       -3.15955
H         -2.78959       -3.36980       -3.11811
C         -1.54291       -2.15601       -4.37286
H         -1.87270       -2.62037       -5.28784
C         -0.61390       -1.13380       -4.41249
H         -0.21795       -0.79938       -5.35725
C         -0.18884       -0.54149       -3.23671
H          0.53435        0.25912       -3.25094
Pd        -1.38909       -1.14182        1.22066
Cl        -2.95947       -1.76992        2.69039
Cl        -0.38718        0.32048        2.60765
C         -3.73360       -4.66170        0.20142
C         -4.17667       -2.20006       -0.33692
H         -1.23057       -5.72055        1.11163
H         -0.26939       -4.30304        0.66531
H         -1.54093       -4.16169        1.87596
H         -3.83817       -4.68862        1.29481
H         -3.96790       -5.68070       -0.14209
H         -4.37948       -1.74524        0.64165
C         -4.73984       -3.63208       -0.38582
C         -4.65590       -1.29472       -1.45209
H         -1.98656       -4.73827       -1.10947
H         -4.96170       -3.89037       -1.43034
H         -5.70491       -3.68147        0.14106
H         -4.14083       -0.33212       -1.43015
H         -4.46444       -1.74277       -2.42810
H         -5.72990       -1.10775       -1.38153
C         -0.96895        4.20781       -0.25389
C          0.33975        3.76907       -0.58177
C          0.57983        2.40630       -0.63528
C         -0.43435        1.50348       -0.45408
C         -1.72231        1.92185       -0.24686
C         -2.02989        3.27005       -0.16846
O         -1.21099        5.58045        0.01974
C          1.50105        4.74082       -0.84497
H          1.57255        2.02789       -0.80671
H         -2.48696        1.17426       -0.12484
C         -3.49031        3.68975        0.06002
C          4.36624       -1.03720        0.14205
C          3.77544       -1.33825       -1.11146
C          2.41482       -1.13020       -1.26416
C          1.66220       -0.57845       -0.25965
C          2.25133       -0.19951        0.91745
C          3.60540       -0.37732        1.13941
O          5.70669       -1.42393        0.40898
C          4.58462       -1.89572       -2.29363
H          1.92156       -1.40472       -2.17860
H          1.62222        0.22637        1.67788
C          4.21600        0.12194        2.45826
C          2.52336        4.11692       -1.82280
C          0.99842        6.04329       -1.49362
C          2.21812        5.04796        0.47840
C         -4.46148        2.64697       -0.53897
C         -3.75727        3.78905        1.56986
C         -3.79484        5.03355       -0.62610
C         -1.02780        5.94246        1.38281
H          2.02956        3.76767       -2.72926
H          3.27701        4.84860       -2.11308
H          3.05119        3.27688       -1.37352
H          0.32909        6.58515       -0.83029
H          1.82872        6.70584       -1.73672
H          0.45508        5.82876       -2.41326
H          1.54329        5.50633        1.19692
H          2.60623        4.13373        0.92617
H          3.05481        5.72805        0.32068
H         -4.43296        1.70882        0.01329
H         -5.48900        3.00789       -0.49980
H         -4.21808        2.44307       -1.58140
H         -3.11524        4.53166        2.03664
H         -4.79226        4.06750        1.76631
H         -3.56563        2.83341        2.05754
H         -3.57039        4.97991       -1.69086
H         -4.84502        5.30179       -0.51370
H         -3.20255        5.83989       -0.20097
H         -0.25400        6.70615        1.45830
H         -1.95427        6.35894        1.77779
H         -0.73922        5.07109        1.97211
C          5.83461       -2.72272        0.97395
C          4.60028       -3.43002       -2.22235
C          3.95039       -1.47193       -3.63847
C          6.02382       -1.34885       -2.28614
C          4.13345       -0.99387        3.51072
C          5.67789        0.56203        2.26137
C          3.44307        1.35313        2.98482
H          5.06284       -3.77753       -1.30180
H          3.58603       -3.82737       -2.25431
H          5.15562       -3.85396       -3.05863
H          2.98760       -1.95432       -3.80069
H          3.80501       -0.39253       -3.67559
H          4.59195       -1.75176       -4.47376
H          6.57826       -1.69229       -3.15914
H          6.02019       -0.25937       -2.29349
H          6.56758       -1.67437       -1.40283
H          4.68023       -1.87807        3.19213
H          4.54994       -0.66475        4.46234
H          3.09757       -1.28758        3.67907
H          6.30744       -0.27294        1.96432
H          5.74751        1.32495        1.48666
H          6.09039        0.97443        3.18183
H          2.43592        1.09143        3.30559
H          3.36948        2.12133        2.21592
H          3.94913        1.78873        3.84598
H          4.85458       -3.18904        1.08240
H          6.46249       -3.34015        0.33176
H          6.31345       -2.65173        1.95038
