111
-148.55582839
P         -2.70432       -1.77976        0.27724
P          0.12554       -0.53179       -0.35539
C         -1.95552       -2.03898       -1.35374
C         -0.69878       -1.53416       -1.60893
C         -3.66011       -3.26049        0.84146
C         -2.89976       -4.04698        1.88683
C         -2.63482       -2.72570       -2.33970
H         -3.62521       -3.10161       -2.14215
C         -2.04686       -2.91181       -3.57900
H         -2.57605       -3.44863       -4.34936
C         -0.78557       -2.40717       -3.83128
H         -0.32983       -2.54851       -4.79748
C         -0.11168       -1.71025       -2.84462
H          0.86472       -1.29160       -3.03206
Pd        -1.00929       -0.97230        1.61963
Cl        -2.44157       -1.12877        3.33930
Cl         0.72602       -0.13212        2.76999
C         -4.98207       -2.64232        1.33310
C         -4.03758       -0.49487        0.30127
H         -3.46716       -4.91840        2.22181
H         -1.93884       -4.39495        1.50037
H         -2.69558       -3.43117        2.76373
H         -4.89629       -2.43869        2.40946
H         -5.80535       -3.36607        1.23343
H         -3.81133        0.15975        1.15374
C         -5.30823       -1.31959        0.58177
C         -4.07325        0.29679       -0.98812
H         -3.83685       -3.87650       -0.04928
H         -5.79595       -1.55327       -0.37459
H         -6.03777       -0.71818        1.14519
H         -3.13409        0.82837       -1.15158
H         -4.22948       -0.36266       -1.84375
H         -4.88035        1.03299       -0.98314
C         -1.37703        3.73561       -0.86698
C         -0.83313        3.32481        0.37878
C         -0.36613        2.02768        0.48950
C         -0.35762        1.17903       -0.58580
C         -0.75762        1.61373       -1.82213
C         -1.23253        2.90154       -2.00797
O         -2.14169        4.92762       -0.94911
C         -0.74611        4.22319        1.62322
H         -0.02718        1.64957        1.43855
H         -0.72445        0.92149       -2.64589
C         -1.58095        3.33773       -3.44068
C          4.64797       -1.07293       -0.24768
C          3.81602       -2.17415       -0.57394
C          2.44611       -1.97187       -0.62025
C          1.90010       -0.75368       -0.30852
C          2.69312        0.28368        0.10635
C          4.06830        0.14446        0.19173
O          6.05731       -1.17944       -0.38929
C          4.38197       -3.56430       -0.90412
H          1.78109       -2.76705       -0.90978
H          2.21771        1.21171        0.37152
C          4.90282        1.30645        0.75318
C         -0.98168        5.70718        1.29382
C         -1.78008        3.75459        2.66124
C          0.66796        4.11471        2.23494
C         -0.42997        2.93894       -4.39050
C         -2.87130        2.63233       -3.89113
C         -1.75706        4.86125       -3.56265
C         -3.51826        4.71328       -0.68357
H         -0.81864        6.33472        2.16970
H         -0.30472        6.03818        0.50703
H         -1.99946        5.87846        0.95160
H         -2.79227        3.82430        2.26745
H         -1.60554        2.71714        2.94505
H         -1.72814        4.36204        3.56428
H          1.42554        4.37647        1.49697
H          0.77741        4.79044        3.08271
H          0.87799        3.10855        2.59374
H         -0.61758        3.30021       -5.40134
H          0.51351        3.36522       -4.05071
H         -0.30950        1.85850       -4.44941
H         -3.13059        2.91048       -4.91229
H         -2.75575        1.54932       -3.85829
H         -3.70944        2.89620       -3.24908
H         -1.90532        5.15782       -4.60075
H         -2.61910        5.20544       -2.99626
H         -0.87853        5.38120       -3.18226
H         -3.64523        4.28121        0.30779
H         -4.04662        5.66559       -0.73279
H         -3.93962        4.02998       -1.41893
C          6.54534       -0.77538       -1.66232
C          5.66429       -3.84574       -0.09980
C          3.36776       -4.67050       -0.53491
C          4.67205       -3.64934       -2.41028
C          6.15599        0.78719        1.48104
C          5.30521        2.24729       -0.39225
C          4.08317        2.11123        1.78783
H          6.46089       -3.15670       -0.36923
H          5.47792       -3.73966        0.96836
H          6.02784       -4.85664       -0.28246
H          3.81445       -5.65806       -0.64820
H          3.04176       -4.56758        0.49978
H          2.48882       -4.64239       -1.17725
H          3.76311       -3.48129       -2.98759
H          5.39979       -2.90083       -2.71424
H          5.06568       -4.62968       -2.67755
H          6.82734        0.27286        0.79797
H          6.71257        1.60593        1.93635
H          5.87883        0.08620        2.26768
H          5.90405        1.72871       -1.13704
H          4.42224        2.64295       -0.89373
H          5.88738        3.08953       -0.01917
H          3.26657        2.65519        1.31645
H          4.70914        2.84754        2.29128
H          3.66311        1.45211        2.54722
H          5.72167       -0.45753       -2.30278
H          7.24984        0.04708       -1.53989
H          7.07139       -1.60627       -2.13212
