171
-217.84155201
P         -1.62053        0.37335       -0.41850
P          1.63326       -0.27114       -0.30741
C         -0.89235        1.45519       -1.65459
C          1.03732       -1.16036       -1.74291
C          0.00817        0.96106       -2.59266
C          0.65328        1.87202       -3.45177
C          0.33431        3.21761       -3.37970
C         -0.59199        3.68117       -2.47070
C         -1.19519        2.79459       -1.60127
C          1.33841       -2.49426       -1.86674
C          0.87315       -3.21114       -2.95149
C          0.09293       -2.58388       -3.89962
C         -0.21898       -1.23831       -3.79215
C          0.27787       -0.50039       -2.70098
Cl         1.51398        0.35741        2.87094
Cl        -1.69284       -0.31396        2.78896
C         -1.04171       -0.58444       -4.84568
C          1.68237        1.42640       -4.43001
H         -0.83489        4.73045       -2.42889
H         -1.90948        3.15204       -0.87795
H          1.94525       -2.97494       -1.11636
H          1.11867       -4.25542       -3.05542
H          0.82525        3.90596       -4.04696
H         -0.27947       -3.14121       -4.74255
C         -3.66663       -3.33967       -1.99742
C         -2.69637       -3.47207       -1.01101
C         -2.05066       -2.32143       -0.57739
C         -2.38233       -1.09695       -1.10133
C         -3.35087       -0.98112       -2.06856
C         -4.01814       -2.10714       -2.53648
H         -4.16921       -4.22020       -2.34761
H         -1.28969       -2.37467        0.18219
H         -3.60097       -0.00243       -2.44322
C         -4.58818        2.50191        2.27641
C         -3.28134        2.96796        2.22324
C         -2.39859        2.32688        1.36311
C         -2.81678        1.26858        0.59308
C         -4.11353        0.82115        0.66160
C         -5.03063        1.43506        1.50564
H         -5.27505        2.96595        2.96004
H         -1.36485        2.62383        1.31638
H         -4.39708       -0.03139        0.07084
C          4.06557       -2.87935        2.51006
C          2.73220       -3.19748        2.28058
C          2.02452       -2.41911        1.37419
C          2.62388       -1.35706        0.74221
C          3.94048       -1.05474        0.98738
C          4.68964       -1.80876        1.88074
H          4.62770       -3.47141        3.20597
H          0.98418       -2.62315        1.18471
H          4.38302       -0.20817        0.49327
C          4.08858        3.34701       -1.45838
C          2.96875        3.52654       -0.65542
C          2.22641        2.40332       -0.31190
C          2.58811        1.16587       -0.78149
C          3.68739        1.00646       -1.58933
C          4.47547        2.09849       -1.93136
H          4.67737        4.20901       -1.70933
H          1.35990        2.48168        0.32182
H          3.93704        0.02002       -1.94404
Pd        -0.05298        0.03269        1.29369
C         -0.92604       -5.23189       -0.92182
C         -2.31719       -4.83169       -0.40635
C         -3.32417       -5.93144       -0.79646
C         -2.29542       -4.72801        1.13178
H         -0.60330       -6.17892       -0.48972
H         -0.93606       -5.34072       -2.00603
H         -0.18694       -4.47283       -0.67081
H         -3.07285       -6.87459       -0.31130
H         -4.33526       -5.66038       -0.49288
H         -3.32062       -6.10792       -1.87175
H         -2.06172       -5.69147        1.58446
H         -1.54929       -4.01397        1.47534
H         -3.26518       -4.40420        1.50894
C         -5.75937       -3.31385       -3.95501
C         -5.14357       -1.95363       -3.57238
C         -4.58906       -1.29970       -4.84946
C         -6.25512       -1.06791       -2.98193
H         -6.19716       -3.80548       -3.08642
H         -6.55097       -3.18526       -4.69318
H         -5.00983       -3.97605       -4.38807
H         -4.15340       -0.32395       -4.63869
H         -3.82054       -1.92827       -5.29716
H         -5.37748       -1.15912       -5.58875
H         -6.66037       -1.51709       -2.07570
H         -5.87873       -0.07698       -2.73059
H         -7.07370       -0.94362       -3.69065
C         -1.38362        4.52974        2.87401
C         -2.83668        4.10361        3.15486
C         -2.93146        3.61856        4.61254
C         -3.74813        5.32795        2.94963
H         -1.27180        4.86278        1.84275
H         -1.08828        5.35408        3.52292
H         -0.69118        3.70736        3.05281
H         -2.60386        4.39369        5.30501
H         -3.95413        3.34707        4.87193
H         -2.30424        2.74032        4.76509
H         -3.71758        5.66009        1.91203
H         -4.78381        5.10054        3.19855
H         -3.43110        6.15915        3.57928
C         -6.66477        0.37863        3.07909
C         -6.47296        0.93159        1.65556
C         -6.78944       -0.18788        0.64605
C         -7.45369        2.09380        1.41040
H         -7.67573       -0.00435        3.21707
H         -5.96501       -0.43427        3.27236
H         -6.49366        1.15096        3.82819
H         -7.82259       -0.52031        0.74612
H         -6.65221        0.16592       -0.37481
H         -6.14854       -1.05528        0.80313
H         -7.30520        2.51920        0.41803
H         -8.48655        1.75288        1.48006
H         -7.31844        2.89075        2.14041
C          1.48149       -5.35367        2.01407
C          2.00685       -4.32455        3.02937
C          0.82810       -3.72248        3.81883
C          2.93866       -5.04800        4.02030
H          2.30064       -5.77571        1.43220
H          0.96496       -6.17154        2.51618
H          0.78158       -4.89336        1.32040
H          1.18337       -2.97751        4.53036
H          0.11497       -3.23232        3.15763
H          0.29359       -4.49352        4.37316
H          2.40473       -5.84129        4.54339
H          3.78289       -5.50431        3.50376
H          3.32289       -4.35871        4.77196
C          6.97964       -1.75044        0.87643
C          6.15786       -1.43949        2.13859
C          6.74680       -2.23356        3.32086
C          6.26210        0.06282        2.46964
H          8.02765       -1.48566        1.01558
H          6.92700       -2.81156        0.63347
H          6.60237       -1.19428        0.02012
H          6.16821       -2.06732        4.22941
H          6.76222       -3.30261        3.11018
H          7.77321       -1.92565        3.52007
H          5.94539        0.68160        1.63121
H          5.63475        0.31163        3.32529
H          7.28846        0.33812        2.71160
C          2.42337        5.87572       -1.35509
C          2.60597        4.93042       -0.15314
C          3.73735        5.45096        0.75144
C          1.29686        4.91803        0.65788
H          1.64725        5.50338       -2.02257
H          2.13430        6.87358       -1.02569
H          3.34289        5.96967       -1.93130
H          3.88969        4.78270        1.59884
H          4.67838        5.52010        0.20686
H          3.50201        6.44160        1.14005
H          1.03764        5.92308        0.99039
H          0.46932        4.54363        0.05617
H          1.39232        4.29161        1.54444
C          6.53832        3.19856       -2.94354
C          5.74597        1.88836       -2.77007
C          5.36637        1.35900       -4.16423
C          6.65337        0.86416       -2.06336
H          5.94849        3.94790       -3.47111
H          6.83532        3.60740       -1.97786
H          7.44555        3.02760       -3.52298
H          6.25711        1.15446       -4.75806
H          4.79279        0.43540       -4.09372
H          4.76736        2.09052       -4.70502
H          6.16844       -0.10855       -1.99520
H          7.58876        0.73007       -2.60638
H          6.89372        1.19488       -1.05305
H         -1.67033        0.20061       -4.42301
H          2.55285        2.08143       -4.38903
H         -1.69283       -1.30665       -5.33813
H         -0.40971       -0.13554       -5.61245
H          1.29346        1.45311       -5.44873
H          2.02255        0.41133       -4.22094
