171
-217.84763585
P         -1.60365        0.42319       -0.35578
P          1.59144       -0.33115       -0.20920
C         -0.82043        1.45444       -1.60748
C          0.97520       -1.22007       -1.64278
C          0.04263        0.91278       -2.55432
C          0.71566        1.78251       -3.43451
C          0.47403        3.14397       -3.35970
C         -0.40627        3.65931       -2.43278
C         -1.04516        2.80892       -1.55262
C          1.20431       -2.57191       -1.71846
C          0.71489       -3.29983       -2.78541
C         -0.01719       -2.66521       -3.76660
C         -0.26127       -1.30306       -3.70751
C          0.25801       -0.55733       -2.63169
Cl         1.44668        0.32766        2.99596
Cl        -1.76517       -0.17457        2.84056
C         -1.04597       -0.64944       -4.79092
C          1.68624        1.27236       -4.44176
H         -0.59042        4.72032       -2.38927
H         -1.72580        3.20700       -0.81839
H          1.77094       -3.05899       -0.94119
H          0.90500       -4.35856       -2.85101
H          0.98937        3.80342       -4.03762
H         -0.40870       -3.23030       -4.59562
C         -3.50219       -3.41975       -1.80289
C         -2.62019       -3.46774       -0.73025
C         -2.02676       -2.27932       -0.32751
C         -2.30826       -1.10271       -0.97621
C         -3.18474       -1.07010       -2.03288
C         -3.80546       -2.23644       -2.46573
H         -3.98444       -4.32295       -2.12597
H         -1.35268       -2.26748        0.51165
H         -3.38972       -0.12361       -2.50352
C         -4.78310        2.72441        1.91981
C         -3.45280        3.09970        2.06737
C         -2.49759        2.40112        1.34140
C         -2.86256        1.36042        0.52429
C         -4.17966        0.99420        0.40175
C         -5.17139        1.67634        1.09439
H         -5.54214        3.25113        2.46682
H         -1.45500        2.65654        1.42986
H         -4.42670        0.16093       -0.23114
C          4.26011       -3.04509        2.26829
C          2.88364       -3.22878        2.32676
C          2.08455       -2.40757        1.54103
C          2.64350       -1.41717        0.77149
C          4.00304       -1.23154        0.75218
C          4.84317       -2.04821        1.49518
H          4.88982       -3.69862        2.84128
H          1.01499       -2.52325        1.53836
H          4.41633       -0.43663        0.15737
C          3.92405        3.39844       -1.24681
C          2.86355        3.49790       -0.35495
C          2.15882        2.33966       -0.05469
C          2.49041        1.15072       -0.65405
C          3.52299        1.07352       -1.55604
C          4.27125        2.20334       -1.86515
H          4.51069        4.27532       -1.44912
H          1.35072        2.35287        0.65559
H          3.74384        0.12107       -2.00728
Pd        -0.07895        0.04759        1.37380
C         -0.81254       -5.09150       -0.11955
C         -2.30737       -4.76133        0.03478
C         -3.12718       -5.95302       -0.49563
C         -2.64816       -4.56240        1.52428
H         -0.54562       -5.97892        0.45399
H         -0.56864       -5.28020       -1.16421
H         -0.18919       -4.26760        0.22328
H         -2.90082       -6.85833        0.06758
H         -4.19674       -5.76501       -0.40336
H         -2.89926       -6.15158       -1.54271
H         -3.70425       -4.32366        1.64761
H         -2.43649       -5.46479        2.09753
H         -2.07219       -3.74762        1.96037
C         -6.20569       -2.68313       -3.02244
C         -4.84548       -2.24321       -3.59531
C         -4.40687       -3.22787       -4.69543
C         -5.01297       -0.84599       -4.22384
H         -6.97360       -2.68290       -3.79580
H         -6.15258       -3.68790       -2.60478
H         -6.52571       -2.00847       -2.22889
H         -4.34465       -4.24663       -4.31507
H         -5.11471       -3.22618       -5.52417
H         -3.42744       -2.95950       -5.08867
H         -5.36131       -0.12306       -3.48646
H         -4.07361       -0.48636       -4.64164
H         -5.74512       -0.87041       -5.03086
C         -1.88888        3.75068        3.92201
C         -3.00969        4.24657        2.98635
C         -4.17237        4.76045        3.85716
C         -2.48908        5.40736        2.12135
H         -1.00210        3.45416        3.36384
H         -1.59144        4.53090        4.62227
H         -2.22322        2.88815        4.49803
H         -4.58962        3.95729        4.46436
H         -3.83177        5.54486        4.53294
H         -4.96892        5.18086        3.24375
H         -1.65464        5.08766        1.49936
H         -3.27294        5.77748        1.46080
H         -2.14876        6.23633        2.74161
C         -6.86537        0.13025       -0.00905
C         -6.65280        1.28773        0.98733
C         -7.46628        2.50154        0.50159
C         -7.15859        0.84079        2.37078
H         -7.92182       -0.12684       -0.08448
H         -6.52031        0.40408       -1.00591
H         -6.33114       -0.76509        0.30852
H         -8.52022        2.24617        0.39279
H         -7.39646        3.33277        1.20211
H         -7.10108        2.84684       -0.46549
H         -7.07420        1.64465        3.10117
H         -8.20476        0.53868        2.32540
H         -6.57754       -0.00548        2.73681
C          0.77164       -4.10422        3.43647
C          2.28156       -4.32675        3.21594
C          2.96337       -4.32091        4.59883
C          2.49498       -5.68965        2.53709
H          0.21776       -4.20951        2.50602
H          0.36916       -4.83548        4.13720
H          0.57898       -3.11087        3.84175
H          2.49374       -5.04322        5.26636
H          4.01862       -4.58033        4.52922
H          2.88629       -3.33658        5.06027
H          2.01799       -5.71113        1.55735
H          3.55635       -5.89254        2.39605
H          2.07339       -6.49604        3.13690
C          6.66072       -0.37938        1.93274
C          6.35855       -1.80790        1.44179
C          6.84686       -1.96920       -0.00985
C          7.12649       -2.80428        2.33096
H          7.73244       -0.18171        1.92367
H          6.17919        0.36702        1.30198
H          6.29898       -0.23852        2.95102
H          6.62006       -2.96742       -0.38378
H          6.36745       -1.24812       -0.67052
H          7.92408       -1.81872       -0.07865
H          6.82369       -2.71301        3.37391
H          6.95454       -3.83107        2.00862
H          8.19942       -2.61874        2.28180
C          2.34596        5.91744       -0.79131
C          2.52758        4.84461        0.29915
C          3.67659        5.24722        1.23953
C          1.22341        4.76274        1.11644
H          1.56665        5.62360       -1.49348
H          2.06183        6.87404       -0.35313
H          3.26415        6.07214       -1.35626
H          3.82324        4.49236        2.01188
H          4.61323        5.35240        0.69290
H          3.46531        6.19712        1.73025
H          0.96648        5.73528        1.53593
H          0.39403        4.44055        0.48768
H          1.32053        4.06334        1.94645
C          5.43052        3.26556       -3.83534
C          5.50015        2.14118       -2.78368
C          5.58872        0.79179       -3.52399
C          6.76606        2.31475       -1.92557
H          4.51486        3.19394       -4.42087
H          5.45484        4.25032       -3.37100
H          6.27398        3.20629       -4.52306
H          6.44055        0.77914       -4.20380
H          5.71750       -0.03429       -2.82546
H          4.69140        0.60737       -4.11359
H          6.83249        1.52855       -1.17367
H          7.66474        2.27136       -2.54058
H          6.75923        3.27284       -1.40661
H         -1.84572       -1.30148       -5.14206
H          2.59322        1.87715       -4.44275
H         -0.41017       -0.41578       -5.64573
H         -1.50372        0.27856       -4.44545
H          1.26154        1.30722       -5.44590
H          1.97810        0.24254       -4.23193
