105
-153.06637907
Cl        -0.86796        2.87236       -2.54818
Pd        -0.09063        1.80885       -0.71755
P          0.95478        0.54039        0.99438
N         -0.03924       -0.76640        1.62907
C         -0.19843       -2.13970        1.40300
C          0.11625       -2.79902        0.18512
C         -0.23901       -4.15353        0.01579
C         -0.11585       -4.79211       -1.34747
C          0.00045       -6.32126       -1.28611
C         -1.14605       -6.90627       -0.45499
C         -1.14011       -6.34056        0.97607
C         -0.80425       -4.87035        1.07374
C         -1.07248       -4.21366        2.26786
C         -0.80073       -2.87905        2.41998
H         -1.04451       -2.37868        3.34128
H         -1.51767       -4.76639        3.07792
H         -2.11489       -6.50962        1.45114
H         -2.10127       -6.66512       -0.93825
H          0.02021       -6.75733       -2.29492
H         -1.00023       -4.51531       -1.93400
C          0.62059       -2.03527       -0.98006
C         -0.27425       -1.15018       -1.62735
C          0.16658       -0.44625       -2.74696
C          1.43710       -0.62673       -3.23005
C          2.31986       -1.52002       -2.63172
C          3.67995       -1.70589       -3.26609
C          4.62320       -2.68678       -2.54198
C          3.84909       -3.80974       -1.84298
C          2.84779       -3.21218       -0.84616
C          1.91130       -2.22991       -1.50028
H          2.28403       -4.00246       -0.33727
H          4.53174       -4.51287       -1.34517
H          5.21257       -2.14299       -1.79419
H          4.15706       -0.72169       -3.35472
H          1.76336       -0.07427       -4.09484
H         -0.50310        0.25281       -3.21536
N         -1.56905       -0.98757       -1.12471
P         -2.11116        0.63602       -0.70707
C         -2.61223        0.73445        1.01027
C         -2.19819        1.80338        1.77105
C         -2.42381        1.80212        3.13454
C         -3.07140        0.73649        3.74289
C         -3.50095       -0.32270        2.95508
C         -3.27601       -0.32175        1.59011
H         -3.58504       -1.15703        0.98200
H         -3.99778       -1.15738        3.41956
C         -3.25798        0.71069        5.21984
H         -2.07677        2.62280        3.73911
H         -1.67485        2.62428        1.30712
C         -3.33979        1.29684       -1.81976
C         -4.01093        2.45517       -1.51092
C         -4.93574        2.96701       -2.40339
C         -5.19311        2.31945       -3.60495
C         -4.49456        1.15618       -3.90107
C         -3.57009        0.64588       -3.00706
H         -3.02244       -0.25684       -3.22683
H         -4.67484        0.65566       -4.83701
C         -6.16553        2.88825       -4.57879
H         -5.45984        3.87895       -2.17367
H         -3.80331        2.95703       -0.57910
H         -1.81605       -1.57566       -0.34121
H         -0.79934       -0.29367        2.10405
C          1.04571        1.73517        2.33594
C          1.34917        3.05521        2.10416
C          1.38893        3.95074        3.15526
C          1.12635        3.52966        4.45176
C          0.84904        2.18769        4.67331
C          0.80910        1.29513        3.61720
H          0.58724        0.25413        3.78755
H          0.66062        1.84637        5.67686
C          1.18543        4.48949        5.58860
H          1.62657        4.98515        2.97452
H          1.56303        3.37729        1.09960
C          2.63183       -0.06504        0.81145
C          3.05560       -0.96814        1.75851
C          4.36566       -1.41609        1.75080
C          5.25817       -0.96483        0.78839
C          4.81660       -0.04079       -0.14944
C          3.51090        0.40986       -0.13161
H          3.18146        1.15674       -0.83188
H          5.50524        0.33370       -0.88742
C          6.66514       -1.45232        0.78215
H          4.70047       -2.12398        2.48959
H          2.35572       -1.31783        2.50147
Cl         1.88837        2.83611       -1.01480
H         -0.41931       -6.89752        1.58668
H          0.95896       -6.59346       -0.82663
H         -1.09389       -8.00411       -0.44109
H          0.73184       -4.36650       -1.89524
H          3.30764       -4.40014       -2.59258
H          3.39310       -2.69556       -0.05218
H          3.52636       -2.04586       -4.29742
H          5.36091       -3.10381       -3.24173
H         -3.38836        1.71817        5.61742
H         -4.13827        0.12881        5.49636
H         -2.39147        0.26511        5.71058
H         -6.62892        2.10277       -5.17740
H         -6.96351        3.42918       -4.06823
H         -5.67012        3.58215       -5.25918
H          2.19147        4.53145        6.00812
H          0.91166        5.49589        5.26877
H          0.49983        4.19812        6.38560
H          7.18587       -1.15403       -0.12881
H          7.21860       -1.04922        1.63133
H          6.70000       -2.54111        0.84278
