58
-89.86615302
P          1.67460        0.18709        0.78964
C          2.86515        1.52586        0.67507
C          4.15969        1.27184        0.28383
C          5.06623        2.31241        0.19139
C          4.66756        3.60015        0.49151
C          3.36704        3.84975        0.88355
C          2.46256        2.80672        0.97580
H          1.44072        2.98656        1.27159
H          4.45408        0.26213        0.04745
C          2.31335       -1.30000        0.00606
C          2.57959       -2.44443        0.72379
C          3.03136       -3.57521        0.06778
C          3.21428       -3.55279       -1.30095
C          2.95018       -2.40200       -2.01651
C          2.49878       -1.27381       -1.35766
H          2.27729       -0.36657       -1.89772
H          2.42954       -2.45674        1.79049
C          1.36111       -0.04868        2.58840
C          0.12963       -0.86898        2.93167
C         -1.17725       -0.15244        2.62741
P         -1.64219       -0.27627        0.85795
C         -3.19592        0.59189        0.59199
C         -4.19572        0.02351       -0.16409
C         -5.37100        0.71708       -0.38840
C         -5.53516        1.98124        0.14174
C         -4.52538        2.55452        0.88878
C         -3.35039        1.85811        1.11014
H         -2.54751        2.30387        1.67559
H         -4.04558       -0.95229       -0.59615
C         -1.77253       -2.02632        0.46794
C         -0.74699       -2.65398       -0.19971
C         -0.82159       -4.00805       -0.46730
C         -1.92468       -4.72909       -0.05620
C         -2.94575       -4.10043        0.62899
C         -2.86493       -2.74545        0.89743
H         -3.64613       -2.24632        1.44855
H          0.12190       -2.08970       -0.48982
Pd        -0.11375        0.67693       -0.61021
Cl         1.31149        1.83470       -1.90779
Cl        -1.82990        0.92127       -2.03913
H         -2.01206       -0.58804        3.18217
H         -1.12236        0.90102        2.90575
H          0.15622       -1.82702        2.39526
H          0.16027       -1.13373        4.00037
H          2.26967       -0.49437        3.00010
H          1.28294        0.94851        3.02605
H          6.08006        2.11809       -0.11787
H          3.05474        4.85528        1.11290
H          3.23724       -4.47428        0.62512
H          3.09146       -2.38251       -3.08458
H         -6.15322        0.27385       -0.98251
H         -4.64867        3.54545        1.29393
H         -0.01581       -4.49807       -0.98859
H         -3.80297       -4.66447        0.95810
H          5.37198        4.41249        0.41661
H          3.56446       -4.43509       -1.81148
H         -6.44932        2.52435       -0.03452
H         -1.98581       -5.78488       -0.26430
