72
-108.40264424
Cl         1.71902       -0.89644        2.64436
Cl        -0.87891        0.91905        2.80865
P         -1.12797        1.14205       -0.27940
P          2.25638       -0.13368       -0.37237
C          3.25449        1.45885       -0.10561
C          3.60709        1.58721        1.37777
C          4.52257        1.42545       -0.95097
C          3.32705       -1.69203       -0.14894
C          4.14925       -1.96054       -1.41604
C          1.45014       -0.39203       -2.05926
C          1.51750        0.79316       -2.99966
C         -1.13181       -0.18417       -1.52226
C          0.03217       -0.93144       -1.99578
C         -0.46857       -2.01358       -2.84478
C         -1.91444       -1.92174       -2.90085
C         -2.32102       -0.78865       -2.09193
C          2.40140        2.66108       -0.48897
H          2.71421        1.56106        2.00241
H          4.27340        0.79762        1.71428
H          5.05496        2.37542       -0.88092
H          4.29840        1.24972       -2.00213
C          4.27554       -1.58275        1.04095
H          3.53646       -2.34756       -2.22929
H          4.91377       -2.71448       -1.22112
H          2.05616       -1.19042       -2.49748
H          0.86977        1.59365       -2.64994
H          1.16155        0.52203       -3.99573
H          2.52977        1.18071       -3.10911
H          0.15104       -2.70466       -3.41926
H         -2.57856       -2.57034       -3.47655
Pd         0.50140        0.25912        1.15871
H         -3.34341       -0.45702       -1.89904
C          2.35140       -2.83773        0.07654
H          4.65463       -1.06372       -1.76941
H          3.74772       -1.29952        1.94916
H          4.75675       -2.54276        1.23342
H          5.07052       -0.86286        0.85511
H          1.83976       -2.72322        1.03089
H          1.60339       -2.87689       -0.71665
H          2.87271       -3.79689        0.09583
H          4.11318        2.53464        1.57017
H          5.20704        0.64838       -0.61486
H          2.17971        2.68680       -1.55266
H          1.46362        2.65507        0.06358
H          2.91647        3.59283       -0.24911
C         -2.80026        1.22114        0.41310
C         -3.24078        2.17616        1.29531
C         -4.57098        1.87919        1.59169
C         -4.89045        0.75360        0.87356
O         -3.81292        0.33952        0.14529
H         -2.65766        2.98726        1.69898
H         -5.21934        2.42443        2.25797
H         -5.85089        0.25317        0.87512
C         -0.74213        2.76000       -0.97076
C         -0.65896        3.90132       -0.21185
C         -0.34670        4.94784       -1.08069
C         -0.25306        4.39981       -2.33648
O         -0.48993        3.05574       -2.28263
H         -0.78980        3.96446        0.85643
H         -0.20633        5.98343       -0.81723
H         -0.02360        4.93987       -3.24668
Fe        -1.30173       -2.13842       -0.95726
C         -2.99443       -2.80342        0.00039
C         -2.18719       -2.00531        0.90208
C         -0.88716       -2.63062        1.01051
C         -0.87941       -3.81128        0.16765
C         -2.18363       -3.91638       -0.46115
H         -4.03229       -2.60190       -0.27434
H         -2.50422       -1.09835        1.42001
H         -0.08168       -2.28655        1.66138
H         -0.05870       -4.52427        0.06269
H         -2.50864       -4.71060       -1.13723
