45
-71.81520142
C          0.64253        1.64365        2.94992
P         -0.09479        0.70606        1.56968
P         -0.14571        0.86902       -1.59897
C          0.50025        1.85767       -2.99023
Cl         2.90859       -0.39852        1.52431
H          1.01567        2.59849        2.59072
H         -0.28899        2.05855       -3.70895
Cl         3.03554        0.08281       -1.68986
C         -1.35707        1.69311        0.73689
C         -1.37812        1.76620       -0.63882
C         -2.36006        2.49109       -1.28193
C         -3.31916        3.15746       -0.53951
C         -3.29449        3.09089        0.84001
C         -2.31260        2.35555        1.48042
H         -2.37496        2.52587       -2.35936
H         -4.08661        3.72591       -1.03860
H         -4.04186        3.60863        1.41844
H         -2.28801        2.29095        2.55635
Pd         1.51070        0.35145       -0.06940
H          1.30239        1.31773       -3.48532
H          1.46716        1.08014        3.37712
H          0.88955        2.80150       -2.61928
C         -1.85658       -3.18570       -2.73628
C         -1.83517       -2.76544       -1.42127
C         -1.31106       -1.52525       -1.10794
C         -0.81247       -0.71709       -2.10194
C         -0.82972       -1.13102       -3.41426
C         -1.35488       -2.37076       -3.73279
H         -2.26333       -4.15219       -2.98538
H         -2.22029       -3.39991       -0.64007
H         -1.27491       -1.18373       -0.08834
H         -0.43177       -0.48867       -4.18260
H         -1.37017       -2.70091       -4.75851
C         -1.74088       -3.32048        2.89135
C         -0.37997       -3.14217        2.73891
C          0.11156       -1.90877        2.35453
C         -0.75486       -0.86476        2.12815
C         -2.11201       -1.03727        2.27929
C         -2.60815       -2.27011        2.66254
H         -2.12709       -4.28175        3.18871
H          0.29740       -3.96175        2.91392
H          1.16854       -1.75047        2.21330
H         -2.77785       -0.21275        2.08360
H         -3.67022       -2.41084        2.77861
H         -0.10104        1.81967        3.72182
