72
-108.40240441
Cl         1.71915       -0.81492        2.67840
Cl        -1.04082        0.73238        2.73674
P         -1.15786        1.12513       -0.28635
P          2.28429       -0.10311       -0.33937
C          3.25619        1.50866       -0.09405
C          3.59360        1.66676        1.38983
C          4.53153        1.47876       -0.92846
C          3.37252       -1.64299       -0.08359
C          4.20754       -1.91897       -1.34023
C          1.48062       -0.39831       -2.02215
C          1.53690        0.77392       -2.97914
C         -1.11514       -0.21756       -1.51392
C          0.06792       -0.95620       -1.95965
C         -0.40904       -2.05466       -2.80295
C         -1.85501       -1.97586       -2.88603
C         -2.28856       -0.83072       -2.10833
C          2.38934        2.69193       -0.50562
H          4.08411        2.62456        1.57103
H          2.69532        1.63752        2.00663
H          5.04926        2.43768       -0.87169
H          4.31822        1.28052       -1.97796
C          4.30901       -1.50097        1.11223
H          3.60445       -2.31809       -2.15482
H          4.97546       -2.66548       -1.13062
H          2.09879       -1.19513       -2.44633
H          1.18626        0.48472       -3.97202
H          2.54531        1.17071       -3.09183
H          0.87948        1.57208       -2.64204
H          0.22655       -2.74691       -3.35892
H         -2.50187       -2.63723       -3.46712
Pd         0.50201        0.28968        1.15234
H         -3.31749       -0.50587       -1.93965
C          2.41122       -2.79871        0.15285
H          4.70990       -1.02237       -1.69841
H          5.09494       -0.77242        0.92161
H          3.76878       -1.21086        2.01105
H          4.80238       -2.45064        1.32424
H          1.89354       -2.67797        1.10318
H          1.66794       -2.85913       -0.64341
H          2.94538       -3.75030        0.18820
H          4.26817        0.89248        1.74512
H          5.22457        0.71822       -0.57265
H          2.18426        2.70110       -1.57293
H          1.44315        2.67766        0.03215
H          2.88552        3.63493       -0.26994
C         -2.84731        1.19398        0.36503
C         -3.32290        2.16637        1.20922
C         -4.65414        1.85471        1.48539
C         -4.93841        0.70307        0.79415
O         -3.83827        0.28710        0.10162
H         -2.76289        2.99987        1.59974
H         -5.32641        2.40778        2.12082
H         -5.89002        0.18604        0.78976
C         -0.77271        2.73992       -0.98694
C         -0.70533        3.88918       -0.23850
C         -0.38677        4.92840       -1.11384
C         -0.27352        4.36818       -2.36263
O         -0.50435        3.02351       -2.29825
H         -0.85086        3.96280        0.82724
H         -0.25433        5.96718       -0.85903
H         -0.03403        4.90016       -3.27500
Fe        -1.25203       -2.12980       -0.95141
C         -2.14579       -1.99997        0.90785
C         -0.84459       -2.62067        1.02284
C         -0.83276       -3.80312        0.18300
C         -2.13948       -3.92283       -0.43749
C         -2.95158       -2.80746        0.01434
H         -2.46364       -1.09038        1.42030
H         -0.04160       -2.26786        1.67186
H         -0.00937       -4.51348        0.08168
H         -2.46232       -4.72269       -1.10758
H         -3.99025       -2.61083       -0.26031
