87
-129.18489450
P         -1.67849       -0.36188       -0.11082
P          1.54478        0.33137       -0.20657
C         -1.44024        0.97238       -1.31107
C          1.30208       -0.65197       -1.68983
C         -0.50464        0.93221       -2.34337
C         -0.30804        2.08583       -3.12725
C         -1.07071        3.21408       -2.88080
C         -2.00387        3.23178       -1.86803
C         -2.17686        2.11053       -1.08087
C          2.09647       -1.74954       -1.91359
C          1.91843       -2.51260       -3.05052
C          0.93959       -2.16781       -3.95874
C          0.12582       -1.06630       -3.75062
C          0.31427       -0.28324       -2.59394
Cl         1.31127        1.14199        2.95266
Cl        -1.37944       -0.75039        3.06911
H         -2.58512        4.11980       -1.68091
H         -2.88915        2.12647       -0.27244
H          2.86246       -2.00794       -1.20167
H          2.53917       -3.37621       -3.22438
H         -0.91749        4.09080       -3.48706
H          0.79335       -2.76387       -4.84353
C         -0.84275       -4.59239       -1.54392
C         -0.34421       -4.17140       -0.31872
C         -0.63325       -2.87988        0.10360
C         -1.38243       -2.03683       -0.68485
C         -1.89909       -2.47207       -1.88208
C         -1.62645       -3.75628       -2.31512
H         -0.61430       -5.58659       -1.88833
C          0.51609       -5.06278        0.50555
H         -0.29856       -2.54330        1.06991
H         -2.49353       -1.79933       -2.47947
H         -2.01393       -4.09880       -3.26057
C         -5.82366       -0.02553        1.74446
C         -5.57774       -0.96887        0.76654
C         -4.31566       -1.07500        0.21275
C         -3.31081       -0.23754        0.63823
C         -3.55477        0.70410        1.61129
C         -4.81424        0.81811        2.18701
H         -6.80646        0.06084        2.17568
H         -6.36811       -1.62226        0.43509
H         -4.10880       -1.80887       -0.54900
H         -2.75659        1.34728        1.94357
C         -5.07320        1.84541        3.23220
C          4.92207       -1.46301        2.27361
C          5.04645       -0.18179        1.77351
C          4.02753        0.36532        1.01692
C          2.89623       -0.37305        0.76120
C          2.76901       -1.64808        1.26222
C          3.77855       -2.21177        2.03176
H          5.71543       -1.89149        2.86201
H          5.93515        0.39328        1.97584
H          4.10628        1.36833        0.63099
H          1.87866       -2.21564        1.05300
C          3.63767       -3.59756        2.55564
C          2.40489        4.64419       -1.33854
C          3.13319        3.62190       -1.91498
C          2.87890        2.30967       -1.56133
C          1.90750        2.03552       -0.62757
C          1.18655        3.05111       -0.04423
C          1.41598        4.37374       -0.40257
H          2.59974        5.66662       -1.61401
H          3.89456        3.84515       -2.64426
H          3.42437        1.49664       -2.01443
H          0.43346        2.81823        0.68953
C          0.63548        5.47139        0.22985
Pd        -0.04870        0.12523        1.49237
C          0.71304        2.12744       -4.21123
C         -0.93128       -0.74127       -4.74794
H          0.24257        2.05317       -5.19234
H          1.27501        3.06191       -4.17871
H          1.43077        1.31192       -4.11719
H         -1.49954       -1.63306       -5.01627
H         -1.63714       -0.00698       -4.35821
H         -0.49298       -0.33648       -5.66098
H          1.56516       -4.95164        0.22749
H          0.42195       -4.82821        1.56680
H          0.24071       -6.10978        0.37182
H         -5.27973        2.81601        2.77905
H         -5.92912        1.57302        3.85123
H         -4.21075        1.95728        3.89100
H          3.84527       -4.33046        1.77465
H          4.32628       -3.78137        3.38148
H          2.62567       -3.77352        2.92343
H          1.10233        5.79082        1.16255
H          0.56782        6.33822       -0.42903
H         -0.38168        5.14781        0.45616
