58
-89.86742013
P          1.62318        0.30699        0.85731
C          3.05705        1.36027        0.60952
C          4.15744        0.87371       -0.05883
C          5.25568        1.68923       -0.26328
C          5.24205        2.98938        0.20167
C          4.13423        3.47516        0.86780
C          3.03742        2.65654        1.07095
H          2.15981        3.02841        1.57552
H          4.15145       -0.14107       -0.42201
C          1.96670       -1.36223        0.28006
C          2.30273       -2.36471        1.16109
C          2.54655       -3.64168        0.68877
C          2.46419       -3.90410       -0.66429
C          2.14776       -2.89139       -1.54734
C          1.90132       -1.61650       -1.07163
H          1.65971       -0.81367       -1.75009
H          2.38989       -2.14678        2.21292
C          1.18956        0.35148        2.64269
C          0.07382       -0.59940        3.04223
C         -1.31066       -0.14484        2.61581
P         -1.63581       -0.26263        0.81156
C         -3.29900        0.35224        0.53008
C         -4.28469       -0.50041        0.08847
C         -5.56127       -0.01767       -0.13615
C         -5.83967        1.31722        0.08247
C         -4.84656        2.16920        0.52426
C         -3.57068        1.68323        0.74885
H         -2.78177        2.33836        1.08369
H         -4.04997       -1.53829       -0.08416
C         -1.45833       -1.93359        0.17049
C         -1.34419       -3.02574        1.00023
C         -1.19149       -4.28786        0.45541
C         -1.16460       -4.44977       -0.91582
C         -1.29748       -3.35413       -1.74508
C         -1.44645       -2.09413       -1.19645
H         -1.55738       -1.22468       -1.82502
H         -1.38974       -2.89564        2.06864
Pd        -0.14415        0.92954       -0.51463
Cl         1.25150        2.34420       -1.54957
Cl        -1.85240        1.15846       -1.95727
H         -2.09118       -0.73896        3.09753
H         -1.48168        0.89282        2.90814
H          0.27620       -1.59441        2.62867
H          0.08756       -0.73317        4.13528
H          2.11586        0.12272        3.17565
H          0.92814        1.38051        2.89507
H          6.11780        1.31103       -0.78766
H          4.12051        4.49205        1.22418
H          2.80186       -4.43058        1.37708
H          2.08719       -3.09335       -2.60408
H         -6.33506       -0.68178       -0.48469
H         -5.06239        3.21198        0.68934
H         -1.09367       -5.14457        1.10177
H         -1.28106       -3.47813       -2.81532
H          6.09569        3.62741        0.04060
H          2.65039       -4.89999       -1.03195
H         -6.83310        1.69562       -0.09532
H         -1.04217       -5.43327       -1.33936
