171
-217.84355855
P         -1.57093        0.32322       -0.37141
P          1.65301       -0.31155       -0.29305
C         -0.85925        1.36997       -1.64116
C          1.03286       -1.26060       -1.68405
C         -0.01294        0.82407       -2.59885
C          0.59617        1.68725       -3.52939
C          0.30438        3.04120       -3.49174
C         -0.56163        3.55671       -2.55078
C         -1.13680        2.71495       -1.61991
C          1.30927       -2.60449       -1.74652
C          0.78187       -3.37498       -2.76360
C         -0.03565       -2.79057       -3.70775
C         -0.32084       -1.43584       -3.66704
C          0.24050       -0.64382       -2.64628
Cl         1.41459        0.31670        3.01720
Cl        -1.65690       -0.52708        2.79833
C         -1.22661       -0.85304       -4.69516
C          1.52942        1.16361       -4.56324
H         -0.78634        4.61071       -2.53802
H         -1.80895        3.10880       -0.87514
H          1.94307       -3.05415       -0.99992
H          1.00204       -4.42886       -2.81287
H          0.76499        3.69527       -4.21277
H         -0.46679       -3.39031       -4.49162
C         -3.73152       -3.28223       -2.02940
C         -2.73337       -3.48351       -1.08445
C         -2.06990       -2.36652       -0.59190
C         -2.38532       -1.11475       -1.05747
C         -3.36031       -0.93318       -2.00745
C         -4.06246       -2.02200       -2.51073
H         -4.28270       -4.13271       -2.38583
H         -1.30913       -2.45986        0.16345
H         -3.57719        0.06874       -2.33778
C         -4.52522        2.58608        2.23349
C         -3.18763        2.96540        2.25397
C         -2.30575        2.28729        1.42277
C         -2.74367        1.25606        0.62973
C         -4.06453        0.88423        0.63629
C         -4.98636        1.54607        1.43474
H         -5.22270        3.10794        2.85966
H         -1.26242        2.55334        1.40587
H         -4.38052        0.06000        0.02150
C          4.24551       -2.67685        2.58839
C          2.96634       -3.14034        2.30680
C          2.20785       -2.43168        1.38470
C          2.70812       -1.30201        0.78478
C          3.96897       -0.84998        1.08808
C          4.76743       -1.53383        1.99641
H          4.85120       -3.20437        3.30089
H          1.20347       -2.74560        1.15575
H          4.31506        0.05903        0.62934
C          3.92048        3.40272       -1.51449
C          2.82896        3.53339       -0.66450
C          2.13958        2.38090       -0.30870
C          2.52626        1.16243       -0.80719
C          3.60271        1.04943       -1.65242
C          4.32964        2.17465       -2.02159
H          4.47201        4.28695       -1.77243
H          1.29954        2.42040        0.36310
H          3.88787        0.07286       -2.00738
Pd        -0.01588       -0.07051        1.32834
C         -3.64370       -5.44436        0.17823
C         -2.42474       -4.90213       -0.58855
C         -1.20493       -4.91473        0.35085
C         -2.11759       -5.81376       -1.79167
H         -4.52372       -5.48965       -0.46253
H         -3.45211       -6.44828        0.55669
H         -3.88060       -4.80237        1.02652
H         -1.39606       -4.32826        1.24893
H         -0.96752       -5.93078        0.66573
H         -0.32851       -4.50649       -0.15123
H         -1.28333       -5.41869       -2.37016
H         -1.85349       -6.81838       -1.46185
H         -2.97544       -5.89859       -2.45735
C         -6.54039       -2.20414       -2.77966
C         -5.22473       -1.85908       -3.50053
C         -5.03120       -2.80583       -4.70088
C         -5.31742       -0.41537       -4.03261
H         -6.53315       -3.23316       -2.42146
H         -6.69082       -1.55314       -1.91882
H         -7.39443       -2.08636       -3.44638
H         -4.08682       -2.60628       -5.20542
H         -5.03104       -3.84985       -4.39093
H         -5.83293       -2.67888       -5.42821
H         -5.52603        0.28906       -3.22786
H         -4.38967       -0.11715       -4.52026
H         -6.12081       -0.32340       -4.76337
C         -3.71858        4.55745        4.16858
C         -2.66178        4.09987        3.14459
C         -2.28314        5.29608        2.25527
C         -1.42109        3.61269        3.92064
H         -4.59149        4.98178        3.67322
H         -4.04423        3.72444        4.79139
H         -3.31189        5.32534        4.82657
H         -3.15459        5.66653        1.71572
H         -1.87879        6.11486        2.85012
H         -1.53389        5.01164        1.51855
H         -1.65822        2.72400        4.50508
H         -0.60070        3.36071        3.25057
H         -1.06201        4.38147        4.60445
C         -7.01170        1.29354       -0.01745
C         -6.45501        1.09996        1.40515
C         -7.31969        1.91382        2.38656
C         -6.54116       -0.38782        1.79631
H         -8.05621        0.98757       -0.07367
H         -6.94879        2.33962       -0.31655
H         -6.45179        0.70535       -0.74331
H         -6.96355        1.79920        3.41018
H         -7.31013        2.97363        2.13274
H         -8.35627        1.57810        2.35823
H         -7.57640       -0.72806        1.81173
H         -5.99582       -1.01626        1.09312
H         -6.11677       -0.54966        2.78691
C          1.01430       -4.00287        3.62589
C          2.36509       -4.37888        2.98516
C          3.28596       -4.92914        4.09131
C          2.15674       -5.47686        1.92798
H          0.29721       -3.66478        2.87990
H          0.57622       -4.85598        4.14339
H          1.14352       -3.19783        4.34895
H          2.82924       -5.78862        4.58192
H          4.24195       -5.25533        3.68230
H          3.47464       -4.17393        4.85413
H          1.50891       -5.12975        1.12518
H          3.10795       -5.76813        1.48285
H          1.70267       -6.36430        2.36847
C          7.20140       -2.13929        2.10213
C          6.16517       -1.03806        2.39299
C          6.17171       -0.69805        3.89451
C          6.56374        0.22439        1.60487
H          7.18892       -2.40956        1.04636
H          8.20758       -1.80356        2.35266
H          6.99793       -3.03952        2.68067
H          5.94507       -1.57501        4.49972
H          7.14544       -0.31992        4.20537
H          5.42529        0.06394        4.11825
H          7.56158        0.55954        1.88747
H          6.57296        0.02433        0.53445
H          5.87329        1.04508        1.79886
C          3.58094        5.42465        0.79282
C          2.44747        4.91425       -0.11444
C          1.14761        4.85324        0.70983
C          2.23436        5.89494       -1.28294
H          3.33626        6.40040        1.21214
H          3.75197        4.73457        1.61891
H          4.51466        5.52186        0.23987
H          1.26409        4.20971        1.58148
H          0.86950        5.84436        1.06787
H          0.32417        4.47353        0.10616
H          1.91929        6.87255       -0.91852
H          3.14854        6.03504       -1.85817
H          1.46655        5.52443       -1.96093
C          6.20254        3.38523       -3.25346
C          5.57587        2.02049       -2.90740
C          5.19959        1.31592       -4.22340
C          6.62248        1.17869       -2.15609
H          6.53578        3.90452       -2.35513
H          7.07088        3.25874       -3.90001
H          5.48980        4.02151       -3.77796
H          6.07786        1.17439       -4.85309
H          4.76174        0.33558       -4.04031
H          4.48031        1.90995       -4.78506
H          7.52611        1.05472       -2.75264
H          6.90088        1.66080       -1.21932
H          6.23636        0.18656       -1.92456
H         -2.13925       -1.44304       -4.78102
H          2.24392        1.92957       -4.86600
H         -0.74645       -0.83550       -5.67453
H         -1.51882        0.16689       -4.44220
H          0.98729        0.84475       -5.45412
H          2.09465        0.30980       -4.18681
