58
-89.86529465
P          1.90820       -0.32611        0.24088
C          1.54722        1.39843        0.61927
C          1.16032        2.21676       -0.41757
C          0.87717        3.54934       -0.17889
C          0.99304        4.05729        1.09896
C          1.39948        3.23857        2.13330
C          1.68308        1.90730        1.89044
H          2.02720        1.27314        2.69025
H          1.08115        1.80891       -1.41321
C          3.60102       -0.34713       -0.37756
C          4.57532        0.22302        0.41137
C          5.89371        0.22260       -0.00970
C          6.22884       -0.35008       -1.22055
C          5.24975       -0.91847       -2.01049
C          3.93542       -0.91400       -1.58503
H          3.16048       -1.34032       -2.19749
H          4.29953        0.67127        1.35297
C          1.89138       -1.40421        1.73980
C          0.52103       -1.82488        2.25278
C         -0.43964       -0.66797        2.49675
P         -1.36475       -0.24741        0.96121
C         -1.88950        1.46887        0.90940
C         -1.92000        2.24608        2.04508
C         -2.34064        3.56137        1.96369
C         -2.73337        4.08629        0.74796
C         -2.71454        3.29849       -0.38586
C         -2.29459        1.98428       -0.30011
H         -2.28796        1.34452       -1.16804
H         -1.61667        1.82511        2.98970
C         -2.79887       -1.33002        0.89350
C         -2.67847       -2.63424        0.47092
C         -3.79497       -3.44965        0.43015
C         -5.02467       -2.95396        0.81596
C         -5.14121       -1.64548        1.24120
C         -4.02280       -0.83217        1.27964
H         -4.09834        0.19301        1.60552
H         -1.71739       -3.00790        0.15706
Pd        -0.08793       -0.75275       -0.91865
Cl         1.12123       -1.52303       -2.63432
Cl        -2.02861       -0.79403       -2.05632
H         -1.19806       -0.91768        3.24331
H          0.08631        0.21281        2.86304
H          0.06034       -2.52369        1.54144
H          0.64837       -2.40707        3.17896
H          2.49496       -2.27977        1.48760
H          2.44316       -0.86806        2.51345
H          0.56179        4.18680       -0.98842
H          1.49730        3.63680        3.12990
H          6.65640        0.66922        0.60682
H          5.50817       -1.36211       -2.95802
H         -2.35886        4.17615        2.84855
H         -3.02707        3.70412       -1.33394
H         -3.70482       -4.46907        0.09257
H         -6.10088       -1.25693        1.54004
H          0.76662        5.09376        1.28898
H          7.25502       -0.35132       -1.55030
H         -3.05818        5.11203        0.68469
H         -5.89528       -3.58848        0.78224
