87
-129.18252488
P         -1.72198       -0.30130        0.06061
P          1.55079        0.31028       -0.25144
C         -1.41571        1.03089       -1.12810
C          1.20336       -0.68999       -1.70241
C         -0.57765        0.95251       -2.23825
C         -0.38097        2.10692       -3.02062
C         -1.03838        3.27766       -2.68381
C         -1.86243        3.33794       -1.58169
C         -2.04102        2.21171       -0.80178
C          1.95621       -1.80584       -1.97352
C          1.69000       -2.55918       -3.09997
C          0.66608       -2.18732       -3.94693
C         -0.10706       -1.06687       -3.68860
C          0.17379       -0.29240       -2.54534
Cl         1.51644        1.38551        2.79495
Cl        -1.22071       -0.34515        3.27836
H         -2.35710        4.25968       -1.32285
H         -2.66786        2.25112        0.07681
H          2.75604       -2.08441       -1.30789
H          2.27723       -3.43727       -3.31321
H         -0.88449        4.15518       -3.28872
H          0.45155       -2.77734       -4.82176
C         -0.78830       -4.57892       -1.16416
C         -0.30210       -4.09058        0.04050
C         -0.60530       -2.78164        0.39540
C         -1.36084       -1.98881       -0.43806
C         -1.87207       -2.49411       -1.60974
C         -1.57932       -3.79347       -1.97898
H         -0.54890       -5.58769       -1.45462
C          0.54357       -4.94409        0.91774
H         -0.28646       -2.39443        1.34829
H         -2.48481       -1.86625       -2.23595
H         -1.96113       -4.18876       -2.90598
C         -6.17297       -0.15462        1.02317
C         -5.73671       -0.10709       -0.28615
C         -4.38264       -0.14663       -0.56406
C         -3.47633       -0.23384        0.46769
C         -3.91202       -0.28224        1.76997
C         -5.26643       -0.23513        2.07069
H         -7.22686       -0.13035        1.24253
H         -6.44991       -0.04060       -1.09136
H         -4.02695       -0.10401       -1.58160
H         -3.19029       -0.35446        2.56336
C         -5.73255       -0.31181        3.48217
C          4.99031       -1.52457        2.11175
C          5.11858       -0.25833        1.57710
C          4.07732        0.29263        0.85489
C          2.92005       -0.42604        0.66647
C          2.78993       -1.68708        1.20034
C          3.82225       -2.25404        1.93739
H          5.79990       -1.95597        2.67541
H          6.02658        0.30254        1.72677
H          4.15931        1.28572        0.44449
H          1.88054       -2.23971        1.04213
C          3.67894       -3.62125        2.50728
C          2.65847        4.51229       -1.57804
C          3.23026        3.41783       -2.19669
C          2.90170        2.14095       -1.78041
C          2.00826        1.97246       -0.74867
C          1.44713        3.06012       -0.12177
C          1.76538        4.35008       -0.52781
H          2.90219        5.50732       -1.90936
H          3.92451        3.55738       -3.00904
H          3.32545        1.27372       -2.26229
H          0.75450        2.91005        0.68874
C          1.12136        5.52440        0.12033
Pd         0.02616        0.28509        1.53151
C          0.53142        2.10511       -4.19830
C         -1.21800       -0.71309       -4.61460
H          1.13345        3.01449       -4.22432
H          1.21921        1.25942       -4.17086
H         -0.03463        2.05145       -5.12897
H         -1.82997       -1.58789       -4.83930
H         -1.87319        0.04388       -4.18190
H         -0.82996       -0.32492       -5.55714
H          0.54028       -4.57849        1.94546
H          0.18017       -5.97261        0.93177
H          1.57568       -4.95653        0.56504
H         -6.65618        0.25135        3.62313
H         -5.92026       -1.34655        3.77201
H         -4.98688        0.09833        4.16484
H          3.77916       -4.37876        1.72880
H          4.43890       -3.81686        3.26499
H          2.70337       -3.74548        2.97924
H          0.91097        5.32473        1.17205
H          1.76460        6.40411        0.07199
H          0.17826        5.76784       -0.37106
