72
-98.10134777
Fe        -0.04004        2.83499       -0.04245
P          1.81036       -0.02059       -0.03435
P         -1.85765       -0.04130        0.05211
C          1.38744        1.62450        0.66718
C          0.40188        1.88636        1.70056
C          0.33782        3.32046        1.91745
C          1.29559        3.94715        1.02490
C          1.96873        2.90045        0.27441
C         -1.43671        1.56711       -0.71066
C         -2.04675        2.85373       -0.41637
C         -1.39179        3.85772       -1.23790
C         -0.39396        3.18913       -2.05336
C         -0.43275        1.77182       -1.74004
C          3.12453       -0.76467        1.05272
C          4.32038        0.14086        0.71130
C          2.95177        0.29182       -1.47631
C          4.31140        0.56743       -0.78774
C         -3.26426       -0.75333       -0.92738
C         -4.46799       -0.00800       -0.32783
C         -2.80048        0.20919        1.63833
C         -4.27721        0.29987        1.18361
H         -0.19371        1.13485        2.21423
H         -0.31088        3.83428        2.63069
H          1.50159        5.01798        0.95605
H          2.74231        3.05016       -0.48102
H         -2.85140        3.02808        0.30107
H          0.18396        0.99269       -2.18934
Cl         1.58776       -3.04953       -0.35431
Cl        -1.56582       -3.11348        0.23480
Pd        -0.02144       -1.50006       -0.04901
H          3.31448       -1.77952        0.68406
C          2.75781       -0.80850        2.53988
H          2.57735        1.18095       -1.99749
C          3.04283       -0.88240       -2.44847
H          5.26749       -0.35337        0.97837
H          4.26631        1.03331        1.35216
H          4.58841        1.62730       -0.88595
H          5.09647        0.02008       -1.32820
H         -1.62341        4.92496       -1.25306
H          0.25744        3.66446       -2.79005
H          3.66746       -0.66281        3.13903
H          3.87071       -0.69981       -3.14781
H         -3.31652       -1.82133       -0.68714
C         -3.13123       -0.55627       -2.43372
H         -2.46236        1.15814        2.07106
C         -2.58445       -0.93434        2.63065
H         -5.39547       -0.57546       -0.50158
H         -4.59741        0.93363       -0.88109
H         -4.69511        1.28736        1.42951
H         -4.86987       -0.41259        1.77398
H         -4.08253       -0.82492       -2.91371
H         -2.73261       -1.88408        2.10026
C          2.08656       -2.11260        2.94796
H          1.76008       -2.09987        3.99020
H          1.21570       -2.32682        2.32878
H          2.76659       -2.95812        2.82788
C          1.76942       -1.14678       -3.22975
H          1.44490       -0.26012       -3.77735
H          1.89411       -1.95413       -3.95507
H          0.96153       -1.44007       -2.56260
C         -1.99825       -1.35747       -3.04610
H         -1.04255       -1.04863       -2.62773
H         -2.11070       -2.42415       -2.84322
H         -1.93879       -1.22896       -4.12927
C         -1.23194       -0.92015        3.32010
H         -1.10166       -1.77900        3.98254
H         -0.42166       -0.94442        2.59361
H         -1.10294       -0.02058        3.92499
H          2.11981        0.05240        2.77628
H          3.33394       -1.77930       -1.88640
H         -2.99597        0.51342       -2.64057
H         -3.37794       -0.90336        3.39052
