111
-148.55799128
P         -2.53074       -1.95529       -1.19427
P          0.16885       -0.46146       -0.44312
C         -1.31069       -1.59033       -2.48527
C         -0.11926       -0.98685       -2.14436
C         -3.39012       -3.56764       -1.48878
C         -2.89194       -4.64074       -0.54552
C         -1.57086       -1.90198       -3.80445
H         -2.51213       -2.35470       -4.06969
C         -0.62970       -1.61585       -4.77849
H         -0.83223       -1.85898       -5.80879
C          0.56663       -1.01706       -4.43284
H          1.29798       -0.79188       -5.19153
C          0.82068       -0.69725       -3.11127
H          1.74176       -0.21350       -2.82601
Pd        -1.43071       -1.59075        0.79829
Cl        -3.23131       -2.40460        1.85595
Cl        -0.18561       -1.15997        2.61784
C         -4.87556       -3.19821       -1.31820
C         -3.97844       -0.80311       -1.19304
H         -1.81790       -4.80420       -0.66207
H         -3.06856       -4.35700        0.49285
H         -3.40126       -5.59177       -0.71790
H         -5.16809       -3.38881       -0.27637
H         -5.50870       -3.85969       -1.92897
H         -4.12749       -0.50395       -0.14678
C         -5.13660       -1.70354       -1.66207
C         -3.72284        0.40596       -2.06618
H         -3.18394       -3.84551       -2.53013
H         -5.25276       -1.59273       -2.74900
H         -6.08792       -1.36088       -1.22735
H         -3.50907        0.10441       -3.09327
H         -4.58738        1.07346       -2.08807
H         -2.86421        0.97685       -1.70688
C         -1.12565        3.87560        0.08219
C         -0.86162        3.37634       -1.22118
C         -0.45718        2.05805       -1.34818
C         -0.38239        1.23272       -0.25722
C         -0.74519        1.67922        0.98492
C         -1.17082        2.98043        1.18401
O         -1.25942        5.27144        0.29666
C         -0.99708        4.21218       -2.50494
H         -0.18277        1.66257       -2.31071
H         -0.67999        0.99075        1.80997
C         -1.68618        3.35727        2.58274
C          4.51404       -0.68742        0.89021
C          4.01574        0.49071        0.27311
C          2.68410        0.51566       -0.10551
C          1.88568       -0.58947        0.03445
C          2.39492       -1.76914        0.50893
C          3.71766       -1.86395        0.91090
O          5.76720       -0.66383        1.55449
C          4.86148        1.74444       -0.00693
H          2.24715        1.41652       -0.50295
H          1.73703       -2.61854        0.58335
C          4.23503       -3.24151        1.35827
C          0.40423        4.54736       -3.04226
C         -1.76691        3.40100       -3.57089
C         -1.78593        5.51325       -2.27705
C         -2.45923        4.68719        2.58255
C         -2.66252        2.26569        3.07672
C         -0.50045        3.44983        3.55721
C         -0.02229        5.90258        0.58294
H          0.96846        3.63908       -3.25214
H          0.34016        5.12350       -3.96495
H          0.97253        5.13138       -2.32074
H         -1.22833        2.50215       -3.86624
H         -2.74395        3.10105       -3.19368
H         -1.92405        3.99478       -4.47099
H         -2.75580        5.30084       -1.82855
H         -1.25148        6.18720       -1.61181
H         -1.95306        6.04101       -3.21573
H         -2.89592        4.88795        3.56057
H         -1.80760        5.52196        2.33553
H         -3.26410        4.66347        1.84872
H         -2.16318        1.30872        3.21865
H         -3.10598        2.54425        4.03219
H         -3.47061        2.11982        2.36046
H          0.04072        2.50522        3.60245
H          0.20302        4.22100        3.24922
H         -0.84183        3.68924        4.56392
H          0.66439        5.77559       -0.25248
H         -0.19177        6.96622        0.75163
H          0.42470        5.46335        1.47328
C          5.66027       -0.27173        2.91303
C          4.60850        2.22002       -1.45519
C          4.45365        2.86323        0.96650
C          6.37058        1.47412        0.12033
C          5.77123       -3.29925        1.42305
C          3.64822       -3.58144        2.73851
C          3.78742       -4.31416        0.34075
H          5.25303        3.06229       -1.70551
H          4.81277        1.41814       -2.16413
H          3.57979        2.54531       -1.60164
H          3.39468        3.10013        0.86656
H          4.63154        2.57046        1.99944
H          5.02061        3.77349        0.77308
H          6.66574        0.63787       -0.51246
H          6.95236        2.34685       -0.17540
H          6.64280        1.22943        1.14420
H          6.15868       -2.64043        2.19645
H          6.11742       -4.30808        1.64660
H          6.20770       -2.99217        0.47329
H          3.95859       -2.85575        3.48762
H          2.55906       -3.58119        2.70935
H          3.97551       -4.56670        3.06939
H          4.20563       -5.28805        0.59403
H          4.12286       -4.05519       -0.66311
H          2.70456       -4.42350        0.31688
H          5.01935       -0.96645        3.45321
H          6.65196       -0.26922        3.36588
H          5.23026        0.72608        2.98168
