171
-217.84657295
P         -1.59730        0.37346       -0.37946
P          1.61045       -0.35733       -0.22663
C         -0.81556        1.39666       -1.63165
C          0.97819       -1.28459       -1.62781
C          0.03469        0.83037       -2.57490
C          0.69980        1.67837       -3.48144
C          0.46557        3.04257       -3.42944
C         -0.39926        3.58135       -2.50035
C         -1.03369        2.75224       -1.59668
C          1.19186       -2.64062       -1.66792
C          0.66887       -3.39528       -2.69922
C         -0.07951       -2.78205       -3.68186
C         -0.30714       -1.41588       -3.65922
C          0.24386       -0.64330       -2.61889
Cl         1.38707        0.27822        3.01075
Cl        -1.74336       -0.49137        2.79521
C         -1.11886       -0.79016       -4.73902
C          1.64564        1.13785       -4.49623
H         -0.57666        4.64406       -2.47528
H         -1.70357        3.16504       -0.86010
H          1.77149       -3.11163       -0.89085
H          0.84370       -4.45815       -2.73325
H          0.97410        3.68595       -4.12759
H         -0.49960       -3.36769       -4.48216
C         -3.68638       -3.30580       -1.97077
C         -2.75102       -3.45298       -0.95475
C         -2.11363       -2.30977       -0.48987
C         -2.38921       -1.08650       -1.04762
C         -3.30500       -0.95873       -2.06323
C         -3.98074       -2.07486       -2.54340
H         -4.21820       -4.17468       -2.31202
H         -1.40682       -2.36042        0.31990
H         -3.49661        0.02213       -2.46405
C         -4.60774        2.68431        2.10934
C         -3.26393        3.02724        2.20095
C         -2.36218        2.33627        1.40237
C         -2.78979        1.32655        0.57633
C         -4.11907        0.98979        0.51256
C         -5.06001        1.67148        1.27307
H         -5.32648        3.20840        2.71055
H         -1.31249        2.57345        1.43820
H         -4.41581        0.17810       -0.12691
C          4.36922       -2.83015        2.40056
C          3.02808       -3.18870        2.32012
C          2.20423       -2.44630        1.48384
C          2.70067       -1.37504        0.78381
C          4.02343       -1.02540        0.89062
C          4.88900       -1.74965        1.69759
H          5.02270       -3.40133        3.03113
H          1.16053       -2.69339        1.39013
H          4.38517       -0.16926        0.34900
C          3.88943        3.38830       -1.31894
C          2.83332        3.48732       -0.42211
C          2.13556        2.32724       -0.11104
C          2.47246        1.13646       -0.70402
C          3.50662        1.05753       -1.60422
C          4.24533        2.19027       -1.92561
H          4.46795        4.26783       -1.53320
H          1.33307        2.33810        0.60576
H          3.74187        0.09950       -2.03613
Pd        -0.08348       -0.05416        1.34686
C         -3.74676       -5.30512        0.40174
C         -2.48690       -4.83664       -0.34686
C         -1.30803       -4.79760        0.64368
C         -2.14341       -5.83760       -1.46625
H         -4.00806       -4.60135        1.19187
H         -4.59902       -5.38167       -0.27277
H         -3.58977       -6.28264        0.85734
H         -1.09536       -5.79284        1.03367
H         -0.40690       -4.42973        0.15422
H         -1.52936       -4.15264        1.49358
H         -2.97393       -5.96207       -2.15972
H         -1.28009       -5.49588       -2.03585
H         -1.90781       -6.81816       -1.05296
C         -6.42908       -2.33630       -2.98779
C         -5.07198       -1.97559       -3.61904
C         -4.76425       -2.95501       -4.76797
C         -5.16532       -0.55226       -4.20268
H         -6.42269       -3.35232       -2.59444
H         -6.66290       -1.66182       -2.16482
H         -7.23233       -2.26567       -3.72098
H         -3.79050       -2.74545       -5.20800
H         -4.75820       -3.98738       -4.42101
H         -5.51267       -2.87634       -5.55636
H         -5.43900        0.17067       -3.43448
H         -4.21721       -0.24541       -4.64313
H         -5.92425       -0.50349       -4.98342
C         -3.84246        4.58324        4.13024
C         -2.75621        4.13705        3.13214
C         -2.33772        5.34772        2.28121
C         -1.54724        3.62185        3.93947
H         -4.20030        3.73921        4.71967
H         -3.44946        5.32885        4.82134
H         -4.69207        5.03177        3.61609
H         -1.94234        6.14851        2.90584
H         -1.57041        5.07075        1.56047
H         -3.18853        5.74015        1.72451
H         -1.81189        2.72293        4.49581
H         -0.70623        3.37721        3.29294
H         -1.20559        4.37233        4.65195
C         -7.36644        2.56451        0.84274
C         -6.55296        1.31612        1.23165
C         -6.99171        0.81973        2.62100
C         -6.84349        0.20757        0.20029
H         -8.42962        2.33296        0.78030
H         -7.24309        3.36314        1.57313
H         -7.04645        2.94499       -0.12714
H         -8.04518        0.54049        2.62150
H         -6.41008       -0.05276        2.91809
H         -6.84935        1.58958        3.37855
H         -6.31617       -0.71238        0.45231
H         -7.90836       -0.02246        0.16828
H         -6.54191        0.51706       -0.80024
C          2.13130       -5.51405        2.12191
C          2.44146       -4.37158        3.10366
C          1.14760       -3.92850        3.81665
C          3.42290       -4.88929        4.17330
H          3.04120       -5.85670        1.62951
H          1.68386       -6.36367        2.63737
H          1.43997       -5.18611        1.34762
H          1.34041       -3.07574        4.46719
H          0.37606       -3.63693        3.10615
H          0.74293       -4.73523        4.42738
H          4.32759       -5.29206        3.71868
H          3.70567       -4.09246        4.86103
H          2.96941       -5.68878        4.75911
C          6.99793       -1.41959        0.38540
C          6.36102       -1.32228        1.78410
C          7.15998       -2.21647        2.75114
C          6.43741        0.13216        2.28676
H          8.04735       -1.12673        0.41249
H          6.94090       -2.43980        0.00645
H          6.48879       -0.77081       -0.32612
H          6.74829       -2.16919        3.75913
H          7.15270       -3.25540        2.42201
H          8.20020       -1.89532        2.80426
H          5.93727        0.81625        1.60210
H          5.95954        0.22725        3.26154
H          7.47291        0.45770        2.38408
C          2.30782        5.90530       -0.86064
C          2.50305        4.83577        0.23069
C          3.66205        5.24258        1.15723
C          1.20944        4.75387        1.06273
H          1.52064        5.60892       -1.55285
H          2.02792        6.86285       -0.42181
H          3.21925        6.05936       -1.43659
H          3.81890        4.48963        1.92947
H          4.59231        5.34836        0.59993
H          3.45452        6.19311        1.64835
H          0.95607        5.72701        1.48300
H          0.37399        4.42831        0.44383
H          1.31891        4.05650        1.89278
C          5.35296        3.21040       -3.94413
C          5.47114        2.13375       -2.84819
C          5.60484        0.75835       -3.53101
C          6.73549        2.39000       -2.00802
H          4.44167        3.07516       -4.52507
H          5.33253        4.21285       -3.51895
H          6.19862        3.16085       -4.62989
H          5.75811       -0.03276       -2.79751
H          4.71504        0.52104       -4.11327
H          6.45802        0.74472       -4.20911
H          6.83117        1.64520       -1.21826
H          7.63184        2.34461       -2.62627
H          6.70173        3.37201       -1.53719
H         -1.50273        0.18472       -4.43542
H          1.18257        1.10668       -5.48340
H         -1.97458       -1.41550       -4.99305
H         -0.52509       -0.65385       -5.64383
H          1.97034        0.12800       -4.24200
H          2.53693        1.76172       -4.56522
