111
-148.55724614
P         -2.31926       -2.31993       -1.01100
P          0.06912       -0.31460       -0.46044
C         -1.28155       -1.76678       -2.38409
C         -0.27438       -0.85767       -2.14729
C         -2.48664       -4.15996       -0.96623
C         -1.69407       -4.73871        0.18578
C         -1.52504       -2.21219       -3.66730
H         -2.31220       -2.92801       -3.84129
C         -0.76413       -1.72994       -4.71826
H         -0.95325       -2.07523       -5.72155
C          0.22833       -0.79762       -4.48362
H          0.81358       -0.41338       -5.30280
C          0.47116       -0.35727       -3.19482
H          1.23353        0.38051       -2.99839
Pd        -1.52973       -1.31094        0.90826
Cl        -3.36768       -2.08861        1.93803
Cl        -0.72127       -0.23148        2.70071
C         -4.00877       -4.36911       -0.86021
C         -4.09628       -1.83586       -1.23055
H         -2.04297       -4.33124        1.13680
H         -1.79529       -5.82554        0.23447
H         -0.63142       -4.49950        0.09682
H         -4.27737       -4.46526        0.20086
H         -4.29824       -5.32358       -1.32558
H         -4.41298       -1.41735       -0.26609
C         -4.79684       -3.18367       -1.48498
C         -4.28004       -0.81922       -2.33853
H         -2.11065       -4.53135       -1.92845
H         -4.88800       -3.33621       -2.56910
H         -5.82913       -3.15526       -1.10446
H         -3.97595       -1.23313       -3.30092
H         -5.32438       -0.51178       -2.42898
H         -3.67719        0.07427       -2.16573
C         -1.01192        4.08942       -0.07436
C         -2.03246        3.10846       -0.16877
C         -1.65622        1.78463       -0.32239
C         -0.33642        1.41821       -0.29179
C          0.64910        2.34814       -0.08886
C          0.34288        3.69041        0.05958
O         -1.34064        5.46890       -0.15184
C         -3.52878        3.45359       -0.11180
H         -2.39546        1.01516       -0.46096
H          1.66906        2.00821       -0.04932
C          1.47526        4.69048        0.34108
C          4.42882       -0.87275        0.77436
C          4.02615       -1.25093       -0.53382
C          2.69730       -1.08196       -0.88544
C          1.77108       -0.63410        0.02178
C          2.13597       -0.40327        1.32249
C          3.44486       -0.55191        1.74587
O          5.80607       -0.73414        1.08493
C          4.98297       -1.83386       -1.58745
H          2.37551       -1.29317       -1.88915
H          1.37172       -0.10413        2.01769
C          3.73833       -0.37792        3.24565
C         -4.05409        3.67706       -1.53767
C         -4.32601        2.29809        0.53719
C         -3.77860        4.70561        0.74846
C          2.03289        5.21552       -0.99019
C          0.97564        5.86234        1.20556
C          2.62173        4.01064        1.12417
C         -1.36801        5.98175       -1.47779
H         -3.91096        2.78424       -2.14582
H         -5.11792        3.91292       -1.52944
H         -3.53132        4.49652       -2.02564
H         -5.36248        2.58920        0.70560
H         -4.34291        1.41217       -0.09502
H         -3.89474        2.02257        1.49928
H         -3.36762        4.57131        1.74847
H         -3.31337        5.58618        0.31276
H         -4.84479        4.90949        0.84395
H          2.41418        4.39552       -1.59834
H          1.26333        5.72473       -1.56557
H          2.84806        5.91883       -0.82186
H          1.79235        6.53665        1.46197
H          0.21954        6.44481        0.68482
H          0.53511        5.49482        2.13177
H          3.36720        4.74297        1.43327
H          2.23953        3.52410        2.02082
H          3.13780        3.26467        0.52147
H         -2.36715        6.35123       -1.70774
H         -0.66885        6.81371       -1.56125
H         -1.09496        5.20409       -2.19221
C          6.29378        0.57418        0.83763
C          4.32683       -3.06244       -2.25574
C          5.26942       -0.77081       -2.66079
C          6.30905       -2.31241       -0.97102
C          2.71570       -1.19705        4.06420
C          5.13707       -0.88750        3.63360
C          3.60980        1.10715        3.62255
H          4.03842       -3.79912       -1.50646
H          3.43713       -2.79011       -2.82103
H          5.01700       -3.54156       -2.94974
H          5.74806        0.10570       -2.22830
H          5.92803       -1.16572       -3.43393
H          4.34750       -0.44333       -3.14049
H          6.93325       -2.80580       -1.71567
H          6.87802       -1.47929       -0.56502
H          6.12415       -3.01695       -0.16091
H          1.70076       -0.82619        3.93250
H          2.73280       -2.24400        3.76298
H          2.94258       -1.14940        5.12886
H          5.28542       -0.84547        4.71238
H          5.27317       -1.91919        3.31121
H          5.91745       -0.28806        3.17094
H          2.60628        1.47534        3.41237
H          4.31404        1.71804        3.06067
H          3.80564        1.25798        4.68376
H          6.19662        0.81538       -0.21961
H          5.72590        1.30102        1.41656
H          7.34451        0.62630        1.12359
