58
-89.86550377
P          1.65541        0.38552        0.84531
C          2.80725        1.75382        0.62945
C          4.01827        1.71114        1.28446
C          4.91219        2.75896        1.15300
C          4.58419        3.84912        0.37206
C          3.36446        3.89525       -0.27290
C          2.47360        2.84595       -0.13939
H          1.52032        2.87318       -0.64124
H          4.25900        0.86068        1.90280
C          2.34597       -1.17380        0.26901
C          1.51505       -2.26822        0.20201
C          2.00044       -3.48192       -0.24738
C          3.32181       -3.59133       -0.63154
C          4.15215       -2.48918       -0.57412
C          3.66054       -1.27694       -0.12505
H          4.29482       -0.40717       -0.09672
H          0.47675       -2.15993        0.46242
C          1.31320        0.28514        2.64782
C          0.18746       -0.65522        3.03689
C         -1.19030       -0.13458        2.66381
P         -1.61392       -0.27125        0.87902
C         -3.13374        0.65969        0.66617
C         -4.31954        0.00527        0.42357
C         -5.48290        0.73320        0.25086
C         -5.44800        2.11201        0.32172
C         -4.25497        2.76394        0.56478
C         -3.09289        2.03315        0.73795
H         -2.15151        2.52770        0.92013
H         -4.32896       -1.07108        0.36443
C         -1.84963       -1.98407        0.37833
C         -1.83659       -3.01553        1.29047
C         -1.98357       -4.31974        0.85405
C         -2.14686       -4.58354       -0.49159
C         -2.16854       -3.54653       -1.40246
C         -2.02019       -2.24486       -0.96225
H         -2.03131       -1.42067       -1.65746
H         -1.71216       -2.80387        2.33947
Pd        -0.08652        0.51103       -0.68746
Cl         1.39931        0.95056       -2.31276
Cl        -1.81707        0.85878       -2.08508
H         -1.98015       -0.66744        3.19881
H         -1.28744        0.91754        2.93826
H          0.35267       -1.64111        2.58557
H          0.22496       -0.82908        4.12371
H          2.25565       -0.01407        3.11284
H          1.10162        1.30015        2.98972
H          5.86178        2.72415        1.66133
H          3.10673        4.74592       -0.88221
H          1.34432       -4.33471       -0.30620
H          5.18104       -2.57132       -0.88392
H         -6.41311        0.22470        0.05748
H         -4.22702        3.84000        0.61518
H         -1.96977       -5.12970        1.56479
H         -2.29750       -3.74926       -2.45290
H          5.27996        4.66564        0.26740
H          3.70342       -4.53550       -0.98454
H         -6.35315        2.68068        0.18378
H         -2.25998       -5.60025       -0.83103
