111
-148.55440971
P         -1.65658       -2.76434        0.08252
P         -0.45212        0.10945       -0.54497
C         -1.63988       -2.12981       -1.62175
C         -1.18531       -0.85316       -1.87976
C         -0.47245       -4.17545        0.24725
C          0.65483       -3.81975        1.19354
C         -2.05211       -2.93279       -2.66621
H         -2.36462       -3.94478       -2.46770
C         -2.03669       -2.44384       -3.96115
H         -2.36339       -3.06998       -4.77532
C         -1.59747       -1.15813       -4.21252
H         -1.58068       -0.77968       -5.22129
C         -1.15919       -0.36344       -3.16847
H         -0.77841        0.62962       -3.34955
Pd        -1.26794       -0.87877        1.36661
Cl        -2.40331       -1.88216        3.01945
Cl        -0.76147        0.98879        2.51025
C         -1.36306       -5.33762        0.73166
C         -3.23993       -3.61805        0.52408
H          1.34617       -4.65562        1.32381
H          1.22652       -2.96325        0.83024
H          0.26269       -3.55565        2.17782
H         -1.24797       -5.43767        1.81963
H         -1.01038       -6.29130        0.31088
H         -3.42659       -3.37623        1.57818
C         -2.86392       -5.10491        0.39456
C         -4.40902       -3.16932       -0.32677
H         -0.09236       -4.37300       -0.76355
H         -3.06911       -5.43681       -0.63235
H         -3.51168       -5.72045        1.03750
H         -4.56028       -2.09006       -0.25166
H         -4.24599       -3.40377       -1.37879
H         -5.33482       -3.66289       -0.02263
C         -0.88456        4.63226       -0.80445
C          0.40718        4.04710       -0.81424
C          0.50122        2.66806       -0.73547
C         -0.62020        1.88071       -0.71623
C         -1.86969        2.43486       -0.80914
C         -2.03565        3.80799       -0.89691
O         -1.02509        6.03850       -0.66279
C          1.69714        4.88104       -0.86055
H          1.46127        2.18735       -0.66813
H         -2.72024        1.77476       -0.79612
C         -3.45375        4.38021       -1.04936
C          3.77321       -1.42506        0.17869
C          3.21872       -0.44655        1.04614
C          1.93293       -0.00222        0.79221
C          1.24526       -0.41676       -0.31690
C          1.82115       -1.26890       -1.22194
C          3.10050       -1.76138       -1.02629
O          4.94480       -2.12796        0.56061
C          3.95102        0.14765        2.26006
H          1.42786        0.64266        1.49124
H          1.24678       -1.57178       -2.08033
C          3.70106       -2.65102       -2.12709
C          1.49348        6.17397       -1.67080
C          2.13616        5.21635        0.57299
C          2.83358        4.09182       -1.55021
C         -4.35663        3.39733       -1.82915
C         -4.06199        4.60531        0.34331
C         -3.44031        5.69925       -1.84331
C         -1.12166        6.47674        0.68677
H          0.76037        6.82528       -1.20163
H          2.42453        6.73375       -1.75607
H          1.14174        5.94516       -2.67624
H          1.37886        5.79898        1.09163
H          2.30280        4.30557        1.14730
H          3.06219        5.79071        0.57397
H          2.51524        3.72729       -2.52652
H          3.70877        4.72407       -1.69824
H          3.15384        3.23935       -0.95311
H         -5.32239        3.85143       -2.04991
H         -3.89545        3.11503       -2.77526
H         -4.55341        2.49069       -1.25910
H         -5.07557        4.99825        0.26830
H         -4.10224        3.67021        0.90145
H         -3.47041        5.30974        0.92294
H         -4.45242        6.06856       -2.00680
H         -2.88926        6.47448       -1.31707
H         -2.96986        5.55692       -2.81562
H         -0.31458        7.17659        0.90268
H         -2.06902        6.99404        0.83716
H         -1.05880        5.62674        1.36753
C          4.66455       -3.28796        1.32728
C          5.46144       -0.14184        2.23251
C          3.78412        1.68362        2.25421
C          3.33971       -0.41889        3.55262
C          5.22109       -2.83073       -1.97140
C          3.01286       -4.02615       -2.10247
C          3.46381       -1.99358       -3.50479
H          5.66076       -1.20590        2.33453
H          5.89937        0.19141        1.29228
H          5.97421        0.36906        3.04712
H          4.35019        2.13937        3.06611
H          4.14321        2.10552        1.31599
H          2.74340        1.97741        2.37984
H          2.27537       -0.19328        3.61196
H          3.45236       -1.50017        3.60104
H          3.82226        0.00838        4.43115
H          5.46323       -3.38196       -1.06603
H          5.63990       -3.38112       -2.81356
H          5.71851       -1.86307       -1.91603
H          3.15591       -4.52173       -1.14422
H          1.94057       -3.92719       -2.26819
H          3.41317       -4.67603       -2.88011
H          2.40434       -1.93299       -3.74814
H          3.94564       -2.56665       -4.29656
H          3.87271       -0.98375       -3.52406
H          4.06879       -3.02548        2.19990
H          4.10937       -4.00797        0.72864
H          5.60222       -3.73898        1.65258
