87
-129.18191101
P         -1.45444       -0.24792       -0.17561
P          1.74372        0.42533        0.19097
C         -1.16263        0.98492       -1.45079
C          1.57239       -0.66870       -1.24117
C         -0.13548        0.78656       -2.36487
C          0.08321        1.75766       -3.36276
C         -0.74441        2.86715       -3.41582
C         -1.76269        3.04104       -2.50224
C         -1.96848        2.09471       -1.51794
C          2.30660       -1.82960       -1.17559
C          2.18461       -2.79517       -2.15517
C          1.30605       -2.59888       -3.19737
C          0.54664       -1.44505       -3.28202
C          0.68865       -0.44874       -2.29631
Cl         1.24499        0.08391        3.43955
Cl        -1.33161       -1.71170        2.74114
H         -2.39423        3.91272       -2.55438
H         -2.76722        2.21756       -0.80572
H          2.97522       -1.98716       -0.34493
H          2.76405       -3.70197       -2.09694
H         -0.58045        3.60339       -4.18426
H          1.19496       -3.35385       -3.95722
C         -2.39544       -4.23696       -2.13340
C         -2.95821       -3.07358       -2.63985
C         -2.66774       -1.86814       -2.01048
C         -1.82923       -1.83566       -0.92067
C         -1.28013       -2.99331       -0.42212
C         -1.56173       -4.20023       -1.03304
H         -2.62015       -5.17659       -2.60870
C         -3.87516       -3.11897       -3.81111
H         -3.09145       -0.94901       -2.38102
H         -0.64693       -2.95023        0.44884
H         -1.13380       -5.11117       -0.64784
C         -4.94656        1.03652        2.45553
C         -3.81932        1.82997        2.37574
C         -2.76108        1.44472        1.57543
C         -2.84025        0.27526        0.85569
C         -3.96100       -0.51792        0.93571
C         -5.03043       -0.15261        1.74447
H         -5.77335        1.33502        3.07733
H         -3.76238        2.74712        2.93880
H         -1.87503        2.05384        1.50422
H         -4.00484       -1.43480        0.37292
C         -6.24961       -1.00303        1.81656
C          5.83795       -0.16655        2.09307
C          5.60930        0.91158        1.26112
C          4.36144        1.09283        0.69451
C          3.35360        0.19560        0.96181
C          3.58095       -0.88119        1.78753
C          4.82539       -1.07305        2.37504
H          6.80954       -0.31124        2.53396
H          6.40193        1.61162        1.05345
H          4.16778        1.93133        0.04540
H          2.78166       -1.57349        1.99439
C          5.06612       -2.24430        3.26112
C          0.88733        4.85285       -0.37068
C          0.39043        4.18357        0.73026
C          0.66834        2.84106        0.90053
C          1.41737        2.17532       -0.04231
C          1.93527        2.84413       -1.12636
C          1.67932        4.19913       -1.30463
H          0.67007        5.89818       -0.50993
H         -0.20479        4.70785        1.45983
H          0.34067        2.31618        1.78336
H          2.53085        2.30723       -1.84559
C          2.20911        4.92746       -2.48933
Pd         0.07125       -0.39240        1.58930
C          1.18190        1.61794       -4.35837
C         -0.40921       -1.29505       -4.41498
H          1.72890        2.55511       -4.46907
H          1.89882        0.85298       -4.05799
H          0.78679        1.34495       -5.33759
H         -0.96804       -2.21811       -4.57495
H         -1.13414       -0.50263       -4.22673
H          0.11780       -1.05917       -5.34020
H         -3.91865       -2.15284       -4.31613
H         -3.54328       -3.85922       -4.54063
H         -4.88736       -3.38156       -3.50044
H         -6.74671       -0.89790        2.78192
H         -6.96193       -0.72627        1.03806
H         -6.00041       -2.05716        1.68627
H          5.29808       -3.13375        2.67365
H          5.89978       -2.06169        3.94056
H          4.18596       -2.46110        3.86830
H          2.57900        5.91445       -2.20794
H          3.03431        4.38396       -2.95165
H          1.43098        5.06174       -3.24184
