171
-217.84361940
P         -1.57090        0.33146       -0.45602
P          1.64526       -0.38726       -0.26606
C         -0.80434        1.29160       -1.76267
C          1.04257       -1.37027       -1.64418
C          0.04517        0.68086       -2.67702
C          0.68036        1.47863       -3.64745
C          0.41270        2.83719       -3.68895
C         -0.45623        3.41811       -2.78971
C         -1.05776        2.63999       -1.82013
C          1.29424       -2.72094       -1.63822
C          0.76704       -3.53195       -2.62349
C         -0.03013       -2.98160       -3.60439
C         -0.29266       -1.62218       -3.63249
C          0.27094       -0.79041       -2.64522
Cl         1.37603        0.24734        2.98332
Cl        -1.79706       -0.36480        2.71868
C         -1.18274       -1.07771       -4.69483
C          1.60525        0.87522       -4.64535
H         -0.66424        4.47433       -2.84159
H         -1.73234        3.08522       -1.10667
H          1.90589       -3.14591       -0.85937
H          0.96923       -4.59058       -2.61779
H          0.89147        3.44194       -4.44053
H         -0.46349       -3.61181       -4.36273
C         -3.77977       -3.30672       -1.97926
C         -2.80026       -3.47654       -1.00909
C         -2.13094       -2.34604       -0.55810
C         -2.42203       -1.11239       -1.08406
C         -3.37740       -0.96315       -2.05936
C         -4.08506       -2.06585       -2.52416
H         -4.33480       -4.16606       -2.30742
H         -1.38018       -2.41660        0.20958
H         -3.56982        0.02345       -2.44560
C         -4.42637        2.84627        2.01970
C         -3.06453        3.11551        2.08795
C         -2.21370        2.36411        1.28815
C         -2.70746        1.36656        0.48417
C         -4.05444        1.10574        0.44023
C         -4.94563        1.85125        1.20099
H         -5.10587        3.41200        2.62886
H         -1.15097        2.53592        1.31818
H         -4.40459        0.30028       -0.17944
C          4.29645       -2.72949        2.58397
C          2.98642       -3.15093        2.38793
C          2.20543       -2.44676        1.48143
C          2.71346       -1.36060        0.81264
C          4.00681       -0.95362        1.02648
C          4.82583       -1.62772        1.92214
H          4.91624       -3.26652        3.27555
H          1.18165       -2.73481        1.31180
H          4.37683       -0.09105        0.50084
C          3.87607        3.42290       -1.24569
C          2.79240        3.47969       -0.37725
C          2.09338        2.30446       -0.13554
C          2.47881        1.12848       -0.72957
C          3.55629        1.08694       -1.58015
C          4.28515        2.23915       -1.84981
H          4.42273        4.32341       -1.44777
H          1.24819        2.29942        0.53103
H          3.84274        0.14406       -2.01567
Pd        -0.07363       -0.13123        1.29607
C         -1.30442       -4.85601        0.51145
C         -2.51393       -4.87336       -0.44244
C         -2.20446       -5.84496       -1.59701
C         -3.74812       -5.36401        0.33441
H         -1.08389       -5.85888        0.87677
H         -0.41649       -4.48345        0.00182
H         -1.49680       -4.22545        1.37903
H         -3.05591       -5.95186       -2.26772
H         -1.35924       -5.48759       -2.18402
H         -1.95604       -6.83559       -1.21657
H         -3.98632       -4.67996        1.14877
H         -4.62128       -5.42847       -0.31407
H         -3.57368       -6.35128        0.76178
C         -4.99565       -2.92754       -4.71038
C         -5.22039       -1.93835       -3.55034
C         -5.29776       -0.51437       -4.13508
C         -6.55634       -2.25835       -2.85580
H         -4.04154       -2.74222       -5.20157
H         -4.99766       -3.95932       -4.36178
H         -5.78158       -2.83166       -5.45940
H         -4.35899       -0.23529       -4.61297
H         -6.08493       -0.44686       -4.88588
H         -5.52166        0.21818       -3.36000
H         -6.55951       -3.27295       -2.45865
H         -6.73269       -1.57506       -2.02580
H         -7.39044       -2.16737       -3.55134
C         -1.47023        3.47067        3.98667
C         -2.47070        4.16289        3.04027
C         -3.55829        4.84303        3.89340
C         -1.74615        5.24284        2.21917
H         -0.65003        3.01386        3.43463
H         -1.04132        4.18260        4.69142
H         -1.96289        2.68348        4.55681
H         -4.27908        5.36700        3.26600
H         -4.09301        4.11312        4.50092
H         -3.11704        5.57507        4.56972
H         -0.93651        4.80934        1.63628
H         -2.43374        5.72922        1.52751
H         -1.31877        6.00760        2.86747
C         -7.20542        2.86564        0.79330
C         -6.45638        1.57862        1.18564
C         -6.90067        1.12325        2.58728
C         -6.82352        0.47593        0.17273
H         -8.28066        2.69291        0.74996
H         -7.02632        3.66475        1.51154
H         -6.88023        3.21623       -0.18607
H         -7.96766        0.90204        2.60635
H         -6.36302        0.22381        2.88684
H         -6.70530        1.89288        3.33313
H         -6.34494       -0.46895        0.42963
H         -7.89994        0.30561        0.15855
H         -6.51973        0.75562       -0.83586
C          1.06176       -3.91603        3.80705
C          2.37887       -4.34833        3.13205
C          3.32587       -4.88355        4.22341
C          2.10236       -5.47603        2.12278
H          0.32103       -3.59880        3.07485
H          0.62913       -4.73596        4.37985
H          1.23463       -3.08211        4.48694
H          2.86302       -5.70764        4.76622
H          4.25426       -5.25689        3.79186
H          3.56798       -4.10483        4.94648
H          1.64778       -6.33726        2.61205
H          1.42844       -5.14081        1.33627
H          3.02731       -5.80425        1.64898
C          6.25613        0.36627        2.46390
C          6.26579       -1.14119        2.14036
C          7.07693       -1.39055        0.85740
C          6.94716       -1.88011        3.30843
H          7.26324        0.72635        2.67321
H          5.86348        0.95210        1.63385
H          5.63685        0.56729        3.33780
H          8.10391       -1.04325        0.96912
H          7.10240       -2.45340        0.61772
H          6.63543       -0.86916        0.00968
H          6.38342       -1.75325        4.23253
H          7.03854       -2.94611        3.10154
H          7.95198       -1.49290        3.47705
C          1.04093        5.26029       -0.34826
C          2.34830        4.78282        0.30289
C          3.40818        5.89227        0.15692
C          2.12200        4.53352        1.80778
H          0.26687        4.49902       -0.26570
H          0.67538        6.17156        0.12468
H          1.19340        5.46666       -1.40732
H          3.54652        6.17270       -0.88692
H          3.10513        6.78917        0.69710
H          4.36838        5.56994        0.55949
H          1.84528        5.45568        2.31848
H          1.32603        3.81142        1.98064
H          3.02849        4.14838        2.27411
C          5.11733        1.71327       -4.16044
C          5.52951        2.16063       -2.74796
C          6.51929        1.14208       -2.15258
C          6.24334        3.52216       -2.85747
H          4.63230        0.73819       -4.13944
H          4.42479        2.42936       -4.60147
H          5.98562        1.63944       -4.81503
H          7.43061        1.08884       -2.74794
H          6.79576        1.42360       -1.13663
H          6.08579        0.14340       -2.12043
H          6.56568        3.87590       -1.87826
H          7.12931        3.44412       -3.48755
H          5.59047        4.27373       -3.30096
H         -1.42573       -0.02907       -4.51929
H          2.32215        1.61053       -5.01123
H         -2.12202       -1.62969       -4.72647
H         -0.71439       -1.15783       -5.67684
H          1.05555        0.49365       -5.50641
H          2.16737        0.04782       -4.20985
