115
-277.94125459
P         -2.02570       -0.19422       -0.04348
P          1.67119        0.83399       -0.17336
C         -1.87318       -1.97217        0.23191
C         -0.66253       -2.53732        0.57475
H          0.16896       -1.91731        0.86501
C         -0.49738       -3.90381        0.48761
H          0.46851       -4.35889        0.64591
C         -1.54389       -4.70556        0.06512
C         -2.79102       -4.13926       -0.14462
H         -3.59893       -4.76616       -0.48583
C         -2.95871       -2.77322       -0.04855
H         -3.91307       -2.32469       -0.27784
C         -3.57890        0.41250        0.63910
C         -4.23911       -0.27014        1.63401
H         -3.81617       -1.17816        2.03308
C         -5.42882        0.22031        2.13039
H         -5.96261       -0.30742        2.90462
C         -5.96126        1.39614        1.63533
C         -5.29250        2.07288        0.63486
H         -5.72970        2.97814        0.24433
C         -4.10027        1.58397        0.14056
H         -3.58116        2.10803       -0.64518
C         -1.82741        0.37541       -1.76854
C         -1.27281        1.64166       -1.84043
H         -0.96887        2.13498       -0.93238
C         -0.95137        2.22712       -3.06536
C         -1.41615        1.60571       -4.21781
H         -1.21506        2.05460       -5.17617
C         -1.97702        0.34628       -4.15507
H         -2.21295       -0.17127       -5.06939
C         -2.08342       -0.33941       -2.94505
C          1.37024        0.31958       -1.90328
C          0.80285       -0.93832       -1.95312
H          0.55092       -1.43135       -1.03256
C          0.40071       -1.51499       -3.15654
C          0.79033       -0.88628       -4.33231
H          0.52923       -1.32890       -5.27901
C          1.35771        0.37176       -4.29499
H          1.53518        0.89614       -5.21872
C          1.54641        1.04757       -3.08867
C         -2.13406       -1.84909       -3.00922
H         -2.78275       -2.14429       -3.84162
H         -2.64570       -2.22548       -2.12609
C         -0.71838       -2.52259       -3.16469
H         -0.54494       -3.25705       -2.37132
H         -0.66747       -3.10955       -4.08871
C          0.16488        3.23427       -3.15560
H          0.07329        3.95316       -2.33523
H          0.03333        3.84038       -4.05918
C          1.58614        2.55886       -3.15061
H          2.14936        2.86543       -4.03997
H          2.18624        2.94569       -2.33041
C          2.28765        2.52184       -0.13636
C          1.41073        3.56202        0.08124
C          3.57808        2.76548       -0.55797
C          1.78855        4.84901       -0.24030
C          3.94733        4.05222       -0.90006
C          3.03067        5.08984       -0.80431
C          2.94343       -0.21573        0.56114
C          3.58914       -1.13743       -0.23064
C          3.28050       -0.09333        1.88841
C          4.56560       -1.94615        0.31171
H          3.33065       -1.22468       -1.27319
C          4.26024       -0.89697        2.43171
H          2.77530        0.63399        2.50157
C          4.90348       -1.83277        1.64686
H          5.08095       -2.67571       -0.29361
H          4.54178       -0.81104        3.46941
Pd        -0.23591        0.67839        1.19755
Cl        -1.67760        0.28301        2.87991
Cl         1.13463        1.88724        2.52292
H          4.90634        4.24137       -1.35500
H          4.25395        1.94047       -0.72121
H          1.08408        5.66429       -0.18205
H          0.41229        3.36409        0.43542
C         -2.43657       -7.03839       -0.36848
C         -1.21918       -6.07478       -0.47621
C         -0.75664       -5.85010       -1.94985
F         -2.04330       -8.28062       -0.69057
F         -2.87101       -7.00515        0.90008
F         -3.41159       -6.62768       -1.19118
F         -0.20310       -6.61304        0.20255
F          0.37724       -5.13701       -1.90934
F         -0.55118       -7.03002       -2.55065
F         -1.69002       -5.13717       -2.59496
C         -8.41448        1.11896        1.35608
C         -7.30068        1.90620        2.10384
C         -7.42367        1.78518        3.65154
F         -8.27310        1.37269        0.04634
F         -8.25405       -0.19330        1.58229
F         -9.61799        1.53086        1.78179
F         -7.43301        3.19759        1.78829
F         -6.34393        2.37113        4.19041
F         -8.53927        2.41237        4.05544
F         -7.45976        0.49152        4.00028
C          5.67935       -4.19652        1.94669
C          5.98291       -2.69873        2.24378
C          7.36179       -2.24782        1.68241
F          6.54084       -4.96624        2.62942
F          4.42210       -4.43964        2.34732
F          5.78744       -4.42196        0.62978
F          6.01332       -2.54711        3.57069
F          7.54747       -0.97124        2.05124
F          8.32825       -3.02436        2.19511
F          7.34474       -2.33412        0.34434
C          4.68134        6.74062       -1.79998
C          3.18641        6.34778       -1.62271
C          2.46995        6.06089       -2.98168
F          4.75223        7.94508       -2.38779
F          5.23701        6.78805       -0.58019
F          5.30500        5.81779       -2.54522
F          2.55770        7.36526       -1.02928
F          1.17062        5.86686       -2.71713
F          2.63045        7.10134       -3.81011
F          2.97491        4.93996       -3.51483
