100
-131.96473286
C         -3.12315       -2.86447       -1.48464
C         -1.95482       -3.41874       -0.79401
C         -2.81909       -1.53820       -1.88927
C         -1.43631       -1.19699       -1.43339
C         -0.61212       -0.30810       -2.32018
C         -0.90984       -2.44111       -0.76509
C          0.49558       -2.80260       -0.31179
C          1.09263       -3.89323       -1.17668
Cl        -0.47835        1.39634        2.71785
Cl         0.47052       -1.60012        2.76975
C          0.66478        1.28425       -4.25170
C          0.16467        0.04571       -4.60214
C          0.53703        1.72980       -2.94399
C         -0.46890       -0.72782       -3.66189
C         -0.06197        0.94914       -1.98454
H         -1.86600       -4.44147       -0.42287
H         -3.44763       -0.90597       -2.52115
H          1.20640       -3.54547       -2.20514
H          2.07051       -4.21150       -0.80891
H          0.44970       -4.77630       -1.20563
H          1.14850        1.90295       -4.98965
H          0.26062       -0.30680       -5.61634
H          0.90106        2.71061       -2.68072
H         -0.87915       -1.68287       -3.94243
H         -4.04449       -3.40672       -1.71298
P         -0.12685        1.68464       -0.34578
H          0.40470       -3.17128        0.71920
P          1.71149       -1.40568       -0.13522
H          1.63313       -0.91371       -2.45269
C          3.54609       -1.90061       -2.34439
C          2.46939       -0.96715       -1.75957
C          3.45224       -1.93026       -3.87404
H          3.55432       -2.77095        0.50328
C          4.00644       -0.92299        1.54286
C          3.01809       -1.98119        1.03180
H          4.26846       -0.27073        0.69146
C          3.41127       -0.04556        2.64691
H          1.04751        3.75038       -0.74470
H         -1.96987        2.60036        0.89898
C         -4.19644        2.54763       -0.82971
C         -2.83594        1.83180       -0.93260
C         -1.74000        2.58806       -0.17355
C         -1.63708        4.03253       -0.69108
C         -2.99253        4.76428       -0.60727
C         -4.09038        3.98897       -1.35860
H         -4.51474        2.57209        0.21976
H         -4.97607        1.98692       -1.36420
H         -2.54321        1.75785       -1.98765
H         -2.89464        0.79748       -0.57653
H         -0.86919        4.58914       -0.13884
H         -1.29270        4.00796       -1.73224
H         -3.28041        4.87108        0.44605
H         -2.90563        5.78980       -0.99298
H         -3.85146        3.96640       -2.42936
H         -5.05747        4.50618       -1.28348
C          3.76453        3.33906       -0.16889
C          2.62585        2.32937       -0.42156
C          1.25168        2.91338       -0.06663
C          1.24406        3.43615        1.37707
C          2.35563        4.47648        1.60580
C          3.73287        3.87317        1.27500
H          3.66679        4.17819       -0.86893
H          4.73983        2.88373       -0.39205
H          2.78934        1.42471        0.17276
H          2.63616        2.00764       -1.46981
H          0.25657        3.83499        1.64491
H          1.40505        2.59066        2.05494
H          2.17507        5.34718        0.96330
H          2.32939        4.85844        2.63597
H          3.94636        3.05212        1.97068
H          4.53179        4.61053        1.43743
H          3.35403       -2.92024       -1.97212
C          4.95588       -1.49674       -1.90891
H          2.52752       -2.46605        1.87594
C          5.29000       -1.59061        2.05028
H          2.86993        0.04043       -1.68662
H          3.62101       -0.93507       -4.28680
H          2.46839       -2.26175       -4.21025
H          4.19697       -2.59869       -4.30882
H          5.71087       -2.14749       -2.35309
H          5.17855       -0.47625       -2.22250
H          5.07828       -1.54345       -0.82909
H          2.56428        0.54027        2.29798
H          3.06416       -0.65753        3.47977
H          4.15061        0.65371        3.04036
H          6.02269       -0.85150        2.37813
H          5.07245       -2.23707        2.90107
H          5.75898       -2.20828        1.28314
Fe        -2.69261       -1.72243        0.12042
C         -2.90813       -0.57335        1.80057
C         -2.55413       -1.92966        2.17492
C         -3.54595       -2.81173        1.59522
C         -4.52970       -1.99473        0.90677
C         -4.15516       -0.60296        1.06157
H         -2.34957        0.31851        2.08805
H         -1.65712       -2.23295        2.71482
H         -3.56888       -3.90038        1.69038
H         -5.43165       -2.36192        0.41026
H         -4.73049        0.25744        0.71477
Pd         0.35886       -0.01846        1.16076
