171
-217.84389250
P         -1.59961        0.36626       -0.37630
P          1.68441       -0.29990       -0.32185
C         -0.87894        1.42460       -1.63333
C          1.03424       -1.20786       -1.72756
C         -0.01281        0.90104       -2.58635
C          0.61423        1.78483       -3.48493
C          0.31971        3.13716       -3.42470
C         -0.56571        3.63137       -2.49063
C         -1.15680        2.76923       -1.58872
C          1.30331       -2.55123       -1.82512
C          0.76875       -3.29351       -2.85950
C         -0.04752       -2.68177       -3.78691
C         -0.32694       -1.32756       -3.70996
C          0.23779       -0.56519       -2.66898
Cl         1.56046        0.40214        2.84512
Cl        -1.57823       -0.42568        2.81410
C         -1.21197       -0.70733       -4.73407
C          1.57072        1.28680       -4.51016
H         -0.79137        4.68478       -2.45902
H         -1.84039        3.14765       -0.84625
H          1.93823       -3.02257       -1.09278
H          0.98606       -4.34616       -2.93868
H          0.79393        3.80664       -4.12241
H         -0.47862       -3.25854       -4.58783
C         -3.70592       -3.34247       -1.86746
C         -3.99715       -2.12296       -2.46712
C         -3.30561       -1.00049       -2.02623
C         -2.37310       -1.11040       -1.02422
C         -2.10238       -2.32070       -0.43717
C         -2.76539       -3.46784       -0.85190
H         -4.24699       -4.21157       -2.19087
H         -3.50293       -0.02680       -2.44176
H         -1.38849       -2.36406        0.36785
C         -4.62887        2.57452        2.18363
C         -5.06040        1.53707        1.36490
C         -4.11299        0.89147        0.58329
C         -2.79612        1.27564        0.61352
C         -2.38705        2.30382        1.42518
C         -3.29608        2.96804        2.23794
H         -5.34610        3.08282        2.79862
H         -4.40506        0.07037       -0.04770
H         -1.34572        2.57825        1.43832
C          4.19865       -2.84325        2.47088
C          2.88786       -3.22417        2.21182
C          2.15686       -2.45629        1.31528
C          2.71086       -1.34629        0.72659
C          4.00132       -0.97344        1.01047
C          4.77595       -1.72200        1.88806
H          4.78777       -3.42223        3.15672
H          1.13556       -2.71050        1.08874
H          4.39089       -0.07851        0.55911
C          3.96121        3.43908       -1.44887
C          4.38279        2.22195       -1.97236
C          3.65621        1.08651       -1.63459
C          2.57099        1.17845       -0.79818
C          2.17278        2.38634       -0.28312
C          2.85925        3.54888       -0.60962
H          4.51012        4.33085       -1.68559
H          3.94578        0.11947       -2.01119
H          1.32425        2.41087        0.37854
Pd         0.00101        0.00273        1.27596
C         -5.22264       -0.62077       -4.11769
C         -5.11067       -2.03753       -3.52083
C         -6.45329       -2.39320       -2.85580
C         -4.82225       -3.02810       -4.66477
H         -4.28760       -0.31552       -4.58590
H         -6.00138       -0.58278       -4.87929
H         -5.47893        0.10994       -3.35091
H         -6.66740       -1.71263       -2.03196
H         -7.27322       -2.32712       -3.57072
H         -6.43878       -3.40646       -2.45571
H         -3.85783       -2.81904       -5.12574
H         -4.80474       -4.05648       -4.30644
H         -5.58643       -2.96100       -5.43896
C         -2.75623       -4.66209        1.35086
C         -2.46460       -4.80169       -0.15541
C         -0.98329       -5.15613       -0.36811
C         -3.32684       -5.94904       -0.71521
H         -3.80169       -4.40339        1.51733
H         -2.55014       -5.59401        1.87693
H         -2.14614       -3.88189        1.80349
H         -0.72510       -6.08344        0.14291
H         -0.76815       -5.28326       -1.42849
H         -0.33472       -4.36847        0.01115
H         -3.14064       -6.09680       -1.77884
H         -3.09892       -6.88624       -0.20753
H         -4.38843       -5.74694       -0.57386
C         -7.04166        1.23607       -0.14031
C         -6.52169        1.07106        1.30000
C         -7.42441        1.88730        2.24435
C         -6.59774       -0.41211        1.70987
H         -6.45913        0.63995       -0.84163
H         -8.08194        0.92073       -0.21872
H         -6.97911        2.27749       -0.45531
H         -8.45667        1.54223        2.18621
H         -7.10099        1.78639        3.28018
H         -7.41509        2.94447        1.97964
H         -6.20266       -0.55349        2.71561
H         -7.62761       -0.76838        1.69738
H         -6.02017       -1.04116        1.03334
C         -2.34862        5.28261        2.27942
C         -2.79925        4.09774        3.15086
C         -1.61210        3.58995        3.99390
C         -3.90165        4.58148        4.11254
H         -1.97072        6.09968        2.89370
H         -1.55811        4.98383        1.59308
H         -3.17935        5.66151        1.68437
H         -1.27111        4.35651        4.68936
H         -1.89944        2.71198        4.57195
H         -0.76494        3.31305        3.36813
H         -3.52030        5.35409        4.78012
H         -4.74272        5.00770        3.56622
H         -4.26868        3.76155        4.72966
C          0.82665       -4.11032        3.35486
C          2.24523       -4.45886        2.85969
C          3.06270       -4.95429        4.06883
C          2.16978       -5.58417        1.81432
H          0.16559       -3.85315        2.52959
H          0.37895       -4.95313        3.88105
H          0.85503       -3.26151        4.03779
H          2.55855       -5.78540        4.56189
H          4.04768       -5.30676        3.76424
H          3.19131       -4.15938        4.80331
H          1.60868       -5.26459        0.93768
H          3.16789       -5.86884        1.48188
H          1.68341       -6.46898        2.22460
C          7.16771       -2.48539        1.94229
C          6.21057       -1.32152        2.26007
C          6.26758       -0.99424        3.76320
C          6.67595       -0.08251        1.47158
H          7.11563       -2.74834        0.88588
H          8.19841       -2.21606        2.17245
H          6.91993       -3.37410        2.52129
H          5.57863       -0.18535        4.00583
H          5.99289       -1.85871        4.36654
H          7.27018       -0.68523        4.05825
H          6.04553        0.78065        1.68451
H          7.69921        0.18395        1.73585
H          6.65070       -0.27536        0.40000
C          5.25510        1.47196       -4.21043
C          5.63506        2.09088       -2.85339
C          6.65611        1.18382       -2.14341
C          6.29652        3.45834       -3.11313
H          6.13675        1.33823       -4.83709
H          4.78505        0.49730       -4.08550
H          4.56109        2.11769       -4.74647
H          6.25128        0.18519       -1.98333
H          7.56676        1.08340       -2.73367
H          6.92761        1.59892       -1.17309
H          5.61007        4.13585       -3.62072
H          6.61711        3.92313       -2.18094
H          7.17768        3.34740       -3.74501
C          3.58101        5.41957        0.88882
C          2.46096        4.91671       -0.03898
C          1.15297        4.83147        0.77119
C          2.25223        5.91618       -1.19214
H          3.32429        6.38565        1.32306
H          3.74910        4.71604        1.70409
H          4.51947        5.53402        0.34731
H          0.86430        5.81396        1.14429
H          0.33773        4.45743        0.15303
H          1.26475        4.17305        1.63236
H          1.49389        5.55217       -1.88414
H          1.92643        6.88498       -0.81388
H          3.17106        6.07269       -1.75563
H         -1.56905        0.27260       -4.41466
H          1.05541        1.04114       -5.43936
H         -2.08611       -1.33209       -4.91790
H         -0.68576       -0.58414       -5.68158
H          2.09075        0.39253       -4.16370
H          2.32329        2.04229       -4.73719
