111
-148.55791707
P         -2.33360       -2.35964       -0.42172
P         -0.02874       -0.15758       -0.55567
C         -1.56170       -1.94964       -2.00679
C         -0.57964       -0.98467       -2.06017
C         -2.48081       -4.18538       -0.17344
C         -1.47518       -4.67009        0.84848
C         -1.96089       -2.59240       -3.16067
H         -2.73386       -3.34222       -3.11158
C         -1.37017       -2.26628       -4.36943
H         -1.68055       -2.76758       -5.27162
C         -0.38485       -1.29880       -4.42065
H          0.07561       -1.04526       -5.36130
C          0.01169       -0.65553       -3.26158
H          0.78248        0.09916       -3.28264
Pd        -1.16328       -1.19370        1.17518
Cl        -2.63075       -1.92222        2.70732
Cl         0.07695        0.00323        2.61359
C         -3.95303       -4.35831        0.24562
C         -4.11554       -1.86968       -0.33821
H         -1.56066       -5.74669        1.01397
H         -0.45156       -4.45474        0.53173
H         -1.63162       -4.17485        1.80873
H         -4.00960       -4.34925        1.34291
H         -4.32582       -5.34742       -0.06117
H         -4.24204       -1.35526        0.62375
C         -4.85008       -3.22341       -0.32564
C         -4.49037       -0.96008       -1.48898
H         -2.30030       -4.65064       -1.15108
H         -5.14761       -3.47438       -1.35302
H         -5.78984       -3.14299        0.24154
H         -4.36143       -1.47067       -2.44485
H         -5.53287       -0.63980       -1.42339
H         -3.85968       -0.06853       -1.51073
C         -1.20246        4.24046       -0.44091
C          0.01142        3.86082       -1.06943
C          0.35501        2.51869       -1.08019
C         -0.48679        1.57186       -0.55724
C         -1.71369        1.92225       -0.05608
C         -2.11781        3.24611       -0.01145
O         -1.48065        5.61543       -0.21712
C          0.95516        4.88929       -1.71324
H          1.29385        2.19271       -1.49302
H         -2.35358        1.14281        0.31950
C         -3.51358        3.57711        0.54061
C          4.33164       -1.07895        0.37398
C          3.78749        0.17228        0.76158
C          2.45853        0.42920        0.46866
C          1.70608       -0.46574       -0.24466
C          2.25436       -1.63437       -0.70583
C          3.57807       -1.95288       -0.45074
O          5.61094       -1.47616        0.84595
C          4.59566        1.22865        1.53056
H          1.98052        1.32561        0.82344
H          1.62287       -2.30694       -1.26079
C          4.15960       -3.24903       -1.03630
C          0.15435        6.02983       -2.36759
C          1.90502        5.45588       -0.64763
C          1.80479        4.23485       -2.82586
C         -4.51287        2.44388        0.21427
C         -3.42786        3.72823        2.06719
C         -4.07793        4.86138       -0.09352
C         -1.03251        6.10110        1.04225
H          0.81535        6.73180       -2.87528
H         -0.54815        5.63431       -3.10043
H         -0.41417        6.58884       -1.62806
H          1.35718        5.97038        0.13725
H          2.48068        4.65758       -0.18173
H          2.60587        6.16530       -1.08701
H          2.51857        3.52018       -2.41837
H          1.17055        3.71736       -3.54520
H          2.37884        4.98684       -3.36680
H         -4.51589        2.22798       -0.85359
H         -4.27582        1.52712        0.75185
H         -5.52554        2.72739        0.50006
H         -4.40400        3.95914        2.49279
H         -3.06933        2.80644        2.52493
H         -2.74105        4.52327        2.34743
H         -5.09183        5.05720        0.25456
H         -3.47260        5.72881        0.15549
H         -4.10310        4.77350       -1.17916
H         -0.46037        5.33313        1.56443
H         -0.40875        6.98191        0.89014
H         -1.88748        6.39330        1.65127
C          5.57744       -2.17409        2.08473
C          6.08880        1.17024        1.16046
C          4.10275        2.65023        1.17777
C          4.41216        1.00462        3.03925
C          5.66378       -3.10034       -1.32838
C          3.92242       -4.40328       -0.05072
C          3.47308       -3.59667       -2.37722
H          6.53428        0.22277        1.45242
H          6.22203        1.28427        0.08518
H          6.64695        1.96323        1.65757
H          4.75072        3.40616        1.62084
H          4.10220        2.80044        0.09849
H          3.09672        2.83314        1.55215
H          4.76656        0.02076        3.33743
H          4.96070        1.74967        3.61485
H          3.35948        1.07330        3.31275
H          6.06164       -3.99750       -1.80197
H          5.84373       -2.25691       -1.99413
H          6.23049       -2.93159       -0.41613
H          4.40965       -4.21399        0.90272
H          2.85756       -4.53313        0.14144
H          4.31106       -5.34110       -0.44685
H          2.43038       -3.87760       -2.23652
H          3.96862       -4.43964       -2.85830
H          3.51091       -2.75051       -3.06284
H          4.54873       -2.28696        2.42943
H          6.03024       -3.15787        1.96227
H          6.15202       -1.62540        2.83073
