115
-277.94090951
P         -2.14935       -0.23832        0.10233
P          1.51457        0.69644       -0.19655
C         -1.96172       -2.02212        0.31375
C         -0.71980       -2.57438        0.54643
H          0.12314       -1.94795        0.78577
C         -0.53946       -3.93256        0.40192
H          0.44549       -4.36581        0.47089
C         -1.60249       -4.74230        0.03711
C         -2.87079       -4.19557       -0.05798
H         -3.68727       -4.83608       -0.35302
C         -3.05226       -2.83480        0.08921
H         -4.02706       -2.39693       -0.05906
C         -3.68894        0.32377        0.84952
C         -4.29367       -0.37748        1.86695
H         -3.82976       -1.27238        2.24958
C         -5.48162        0.07626        2.40384
H         -5.97838       -0.46322        3.19485
C         -6.06496        1.23342        1.92629
C         -5.44855        1.93131        0.90523
H         -5.91969        2.82516        0.52898
C         -4.26117        1.47875        0.36957
H         -3.78485        2.01855       -0.43270
C         -2.02101        0.38988       -1.60971
C         -1.45390        1.65114       -1.66869
H         -1.09845        2.11140       -0.76215
C         -1.19020        2.27321       -2.88935
C         -1.72631        1.69734       -4.03487
H         -1.57137        2.17622       -4.98726
C         -2.30116        0.44368       -3.98436
H         -2.59349       -0.04012       -4.90087
C         -2.35030       -0.28113       -2.79407
C          1.14835        0.27359       -1.93958
C          0.55974       -0.97167       -2.03516
H          0.33454       -1.51176       -1.13506
C          0.09519       -1.47416       -3.24896
C          0.44515       -0.78761       -4.40485
H          0.13703       -1.17315       -5.36232
C          1.03566        0.45744       -4.32336
H          1.18317        1.02952       -5.22378
C          1.28547        1.06285       -3.09111
C         -2.42261       -1.78701       -2.90239
H         -3.17961       -2.05436       -3.64798
H         -2.80964       -2.18703       -1.96809
C         -1.04416       -2.45934       -3.26087
H         -0.81698       -3.28129       -2.57386
H         -1.09254       -2.93518       -4.24661
C         -0.06531        3.26795       -3.00961
H         -0.11202        3.97663       -2.17646
H         -0.22658        3.88739       -3.89918
C          1.34538        2.57453       -3.07504
H          1.89451        2.92145       -3.95846
H          1.96800        2.90864       -2.24914
C          2.19597        2.35820       -0.11973
C          3.47429        2.56821       -0.59349
C          1.37361        3.42272        0.17910
C          3.88022        3.85233       -0.90267
C          1.78902        4.70583       -0.10990
C          3.01260        4.92050       -0.72289
C          2.78125       -0.40735        0.46260
C          3.34238       -1.36490       -0.35071
C          3.21156       -0.26933        1.76103
C          4.33412       -2.18826        0.13992
H          3.01261       -1.46325       -1.37174
C          4.20808       -1.08648        2.25129
H          2.76961        0.48415        2.39115
C          4.77254       -2.05349        1.44386
H          4.78928       -2.93983       -0.48591
H          4.57032       -0.98111        3.26188
Pd        -0.29676        0.58375        1.29033
Cl        -1.71168        0.23587        3.00676
Cl         1.11351        1.74970        2.60756
H          1.12194        5.54503        0.01338
H          0.38474        3.25105        0.57154
H          4.82405        4.02177       -1.39556
H          4.10726        1.72468       -0.82165
C         -0.91644       -5.81397       -2.05501
C         -1.35070       -6.09312       -0.58238
C         -0.29013       -6.90058        0.21942
F         -1.90798       -5.12761       -2.63958
F          0.18808       -5.05573       -2.05222
F         -0.70361       -6.97240       -2.69363
F         -2.47856       -6.80746       -0.61154
F         -0.19913       -8.13655       -0.29611
F          0.89534       -6.27808        0.15667
F         -0.70509       -6.96044        1.49382
C         -7.40973        3.20702        2.72428
C         -7.40413        1.67157        2.46241
C         -8.50390        1.23878        1.45065
F         -7.32334        3.86261        1.55845
F         -8.53874        3.54024        3.36848
F         -6.34229        3.49216        3.48503
F         -7.65525        1.06147        3.62400
F         -8.23523        1.77477        0.25099
F         -8.46600       -0.09959        1.36619
F         -9.70399        1.64277        1.89304
C          5.65957       -4.39795        1.63579
C          5.90404       -2.89794        1.97244
C          7.24040       -2.36688        1.37949
F          4.42704       -4.71125        2.06391
F          5.74077       -4.57886        0.30998
F          6.57454       -5.14742        2.27023
F          5.97574       -2.78846        3.30192
F          7.17131       -2.39501        0.04042
F          7.38978       -1.10099        1.79813
F          8.25712       -3.12422        1.81820
C          4.68188        6.54576       -1.72984
C          3.18187        6.20380       -1.49820
C          2.39358        6.00113       -2.83237
F          5.29335        6.52334       -0.53630
F          5.23401        5.63016       -2.53780
F          4.77446        7.76904       -2.27417
F          2.62238        7.21969       -0.83666
F          2.83451        4.88989       -3.43747
F          1.10197        5.83703       -2.51460
F          2.55093        7.07219       -3.62148
