111
-148.55879758
P         -2.40184       -2.45956       -0.11037
P         -0.07949       -0.32620       -0.47840
C         -1.67066       -2.19851       -1.74434
C         -0.69768       -1.23717       -1.90755
C         -2.44659       -4.24709        0.35527
C         -1.44992       -4.52994        1.45839
C         -2.11224       -2.92666       -2.83022
H         -2.87209       -3.67887       -2.69223
C         -1.58222       -2.68013       -4.08506
H         -1.92646       -3.24703       -4.93461
C         -0.61995       -1.70238       -4.25068
H         -0.21234       -1.50505       -5.22848
C         -0.17811       -0.97690       -3.15867
H          0.56853       -0.20636       -3.27260
Pd        -1.36173       -0.99756        1.33582
Cl        -2.89715       -1.54381        2.88027
Cl        -0.33909        0.51488        2.64546
C         -3.91808       -4.46902        0.75397
C         -4.21292       -2.06868       -0.08389
H         -1.47399       -5.58001        1.75951
H         -0.43109       -4.28894        1.14472
H         -1.67156       -3.92704        2.34142
H         -4.00845       -4.35355        1.84287
H         -4.22109       -5.50546        0.54121
H         -4.38011       -1.47967        0.82762
C         -4.86530       -3.45697        0.04948
C         -4.63959       -1.28699       -1.30867
H         -2.20082       -4.81303       -0.55275
H         -5.11745       -3.82786       -0.95344
H         -5.82416       -3.37887        0.58412
H         -4.06285       -0.36550       -1.41183
H         -4.48313       -1.87030       -2.21724
H         -5.69879       -1.02294       -1.26573
C         -0.95937        4.13080       -0.72351
C          0.31849        3.64685       -1.10539
C          0.55884        2.28612       -1.01096
C         -0.43419        1.41852       -0.63903
C         -1.70391        1.86756       -0.38625
C         -2.00815        3.21734       -0.44490
O         -1.17823        5.52712       -0.58316
C          1.44902        4.57172       -1.58344
H          1.53661        1.88393       -1.21245
H         -2.45550        1.14675       -0.11514
C         -3.44543        3.67104       -0.14600
C          4.38267       -0.98758        0.23700
C          3.62322       -0.18412        1.12404
C          2.26617       -0.05236        0.88743
C          1.67354       -0.61215       -0.21338
C          2.42334       -1.31137       -1.12368
C          3.78581       -1.48756       -0.94826
O          5.72844       -1.31622        0.55096
C          4.23802        0.52070        2.34341
H          1.63726        0.47556        1.58151
H          1.92597       -1.72865       -1.98008
C          4.58966       -2.22795       -2.02941
C          0.88758        5.80081       -2.32111
C          2.28939        5.01509       -0.37644
C          2.37142        3.83247       -2.57982
C         -4.46136        2.58037       -0.55511
C         -3.58930        3.92826        1.36196
C         -3.80465        4.93960       -0.94038
C         -0.87574        6.03299        0.71119
H          0.28729        6.42099       -1.66034
H          1.69125        6.42208       -2.71561
H          0.25657        5.49293       -3.15417
H          1.68477        5.55188        0.35049
H          2.72363        4.15206        0.12701
H          3.10371        5.66940       -0.68660
H          1.79188        3.39314       -3.39136
H          3.09533        4.51865       -3.01882
H          2.93781        3.03927       -2.09397
H         -5.48254        2.95071       -0.46782
H         -4.30464        2.27252       -1.58857
H         -4.38655        1.70132        0.08334
H         -4.60453        4.23581        1.61105
H         -3.36033        3.02626        1.92923
H         -2.91009        4.70879        1.69569
H         -4.84292        5.22541       -0.77364
H         -3.18157        5.78107       -0.64811
H         -3.66502        4.77569       -2.00836
H         -1.76430        6.49694        1.13904
H         -0.53528        5.22802        1.36384
H         -0.09873        6.79341        0.63527
C          5.87274       -2.50602        1.31649
C          5.69252        0.94097        2.06539
C          3.45398        1.81010        2.68031
C          4.17768       -0.41809        3.55768
C          6.02766       -1.68545       -2.12016
C          4.60919       -3.73030       -1.70962
C          3.94672       -2.02949       -3.42136
H          6.32975        0.07704        1.89422
H          5.74578        1.57556        1.18134
H          6.10789        1.49537        2.90656
H          3.96192        2.38016        3.45778
H          3.36364        2.44842        1.80224
H          2.45317        1.58997        3.04866
H          3.14707       -0.69548        3.77801
H          4.73532       -1.33378        3.37699
H          4.59485        0.06125        4.44287
H          6.57785       -1.86269       -1.19949
H          6.57734       -2.16546       -2.92944
H          6.02165       -0.61163       -2.30420
H          5.07410       -3.92251       -0.74573
H          3.59583       -4.12962       -1.67414
H          5.16384       -4.28359       -2.46705
H          2.98362       -2.53220       -3.49688
H          4.58361       -2.44180       -4.20367
H          3.79980       -0.97068       -3.63326
H          6.36864       -2.27644        2.25944
H          4.89712       -2.95057        1.51696
H          6.49217       -3.21831        0.77172
