171
-217.84743232
P         -1.56404        0.42653       -0.40305
P          1.60771       -0.32550       -0.21328
C         -0.79205        1.43650       -1.67626
C          1.01010       -1.23016       -1.64789
C          0.07090        0.87684       -2.61181
C          0.72816        1.72672       -3.52241
C          0.46669        3.08616       -3.48993
C         -0.41637        3.61803       -2.57480
C         -1.03601        2.78824       -1.66129
C          1.24378       -2.58300       -1.69507
C          0.76014       -3.33681       -2.74635
C          0.02406       -2.72785       -3.74017
C         -0.22618       -1.36610       -3.71053
C          0.29246       -0.59316       -2.65345
Cl         1.44263        0.25309        2.99288
Cl        -1.79647       -0.31789        2.75325
C         -1.02600       -0.74671       -4.80301
C          1.69032        1.19358       -4.52570
H         -0.61873        4.67660       -2.56827
H         -1.71643        3.19823       -0.93283
H          1.80797       -3.05286       -0.90564
H          0.95513       -4.39589       -2.78791
H          0.96558        3.73062       -4.19403
H         -0.36740       -3.31298       -4.55523
C         -3.54753       -3.38628       -1.80924
C         -2.65399       -3.44589       -0.74650
C         -2.03367       -2.26719       -0.35655
C         -2.29956       -1.08926       -1.00873
C         -3.18433       -1.04517       -2.05778
C         -3.83266       -2.20109       -2.47730
H         -4.05492       -4.28062       -2.11809
H         -1.35223       -2.26310        0.47677
H         -3.37495       -0.09735       -2.53186
C         -4.69584        2.78131        1.88412
C         -3.35765        3.12101        2.04481
C         -2.41273        2.40718        1.31845
C         -2.80029        1.38894        0.48288
C         -4.12530        1.05951        0.34679
C         -5.10475        1.75293        1.04313
H         -5.43238        3.32994        2.44040
H         -1.36315        2.62485        1.41652
H         -4.39891        0.24159       -0.29640
C          4.27020       -3.05864        2.24183
C          2.89303       -3.22713        2.31255
C          2.09872       -2.39408        1.53538
C          2.66423       -1.40841        0.76443
C          4.02585       -1.23868        0.72967
C          4.86062       -2.06958        1.46540
H          4.90370       -3.71645        2.80741
H          1.02767       -2.49696        1.53997
H          4.43273       -0.44843        0.12526
C          3.87871        3.48068       -1.12325
C          2.84635        3.51722       -0.19374
C          2.14710        2.34175        0.04126
C          2.47814        1.18622       -0.62145
C          3.49951        1.16598       -1.53920
C          4.22582        2.32102       -1.80649
H          4.44327        4.37362       -1.31426
H          1.34209        2.32462        0.75551
H          3.72717        0.23913       -2.03753
Pd        -0.07921        0.05602        1.35709
C         -0.86817       -5.09474       -0.13999
C         -2.35654       -4.73993        0.02369
C         -3.19971       -5.92086       -0.49372
C         -2.68197       -4.52663        1.51467
H         -0.61106       -5.98359        0.43583
H         -0.63528       -5.29200       -1.18562
H         -0.22895       -4.27942        0.19448
H         -2.98244       -6.82714        0.07151
H         -4.26530       -5.71567       -0.39252
H         -2.98461       -6.12740       -1.54198
H         -3.73199       -4.26569        1.64473
H         -2.48427       -5.43021        2.09101
H         -2.08602       -3.72169        1.94221
C         -6.25935       -2.54633       -2.97661
C         -4.89233       -2.18796       -3.58822
C         -4.52243       -3.21984       -4.67040
C         -5.00534       -0.80157       -4.25242
H         -6.24339       -3.54010       -2.53036
H         -6.53058       -1.83473       -2.19682
H         -7.04237       -2.53209       -3.73453
H         -3.53773       -3.00991       -5.08592
H         -4.50508       -4.23138       -4.26695
H         -5.24343       -3.20215       -5.48752
H         -5.31546       -0.04465       -3.53245
H         -4.05524       -0.49427       -4.68739
H         -5.74563       -0.81544       -5.05222
C         -1.43105        4.40812        3.09882
C         -2.96073        4.23334        3.02577
C         -3.47211        3.87407        4.43326
C         -3.58422        5.56312        2.56583
H         -1.02459        4.69400        2.12990
H         -1.16329        5.18892        3.81047
H         -0.94592        3.48691        3.42129
H         -3.06159        2.91774        4.75691
H         -3.17896        4.63132        5.16015
H         -4.55834        3.79602        4.45381
H         -3.24302        5.82109        1.56333
H         -4.67178        5.50344        2.54410
H         -3.30757        6.37640        3.23655
C         -6.73744       -0.12423        1.33352
C         -6.57342        1.33814        0.87789
C         -6.97429        1.46509       -0.60383
C         -7.51415        2.22277        1.71777
H         -7.77519       -0.44601        1.24847
H         -6.12927       -0.79768        0.73047
H         -6.43112       -0.23942        2.37301
H         -8.01903        1.19154       -0.75037
H         -6.84056        2.48888       -0.95259
H         -6.36916        0.81531       -1.23480
H         -7.28201        2.14436        2.77970
H         -7.43615        3.26890        1.42226
H         -8.55227        1.91859        1.58439
C          2.95459       -4.28837        4.59681
C          2.28634       -4.31702        3.20791
C          2.51357       -5.68742        2.54874
C          0.77284       -4.10055        3.40914
H          2.86081       -3.30023        5.04688
H          2.48794       -5.00962        5.26754
H          4.01388       -4.53399        4.53901
H          2.08994       -6.48816        3.15465
H          2.04626       -5.72380        1.56473
H          3.57721       -5.88704        2.42088
H          0.57034       -3.10572        3.80590
H          0.23081       -4.21436        2.47256
H          0.36573       -4.82928        4.10981
C          6.88725       -1.63283        2.87497
C          6.38805       -1.91641        1.44633
C          6.83066       -0.75366        0.53584
C          7.02318       -3.21656        0.92062
H          7.96837       -1.49595        2.89077
H          6.42599       -0.72794        3.27014
H          6.64529       -2.45321        3.54956
H          6.51442       -0.91989       -0.49370
H          6.41275        0.19291        0.87819
H          7.91597       -0.65375        0.53490
H          6.78070       -4.06338        1.56159
H          6.66250       -3.44227       -0.08278
H          8.10885       -3.13089        0.87796
C          1.07179        5.25776        0.07490
C          2.45290        4.79252        0.56526
C          3.46792        5.92862        0.33543
C          2.39345        4.49655        2.07710
H          0.32583        4.47621        0.21204
H          0.73957        6.14271        0.61732
H          1.10557        5.50430       -0.98582
H          4.46889        5.62617        0.64280
H          3.50126        6.22127       -0.71376
H          3.19598        6.81225        0.91273
H          2.15462        5.39774        2.64151
H          1.63397        3.75184        2.31045
H          3.35175        4.11910        2.43297
C          5.58003        0.98474       -3.49893
C          5.42407        2.33226       -2.76700
C          6.70753        2.59977       -1.95973
C          5.23794        3.44123       -3.82025
H          5.76897        0.17437       -2.79540
H          4.68604        0.74190       -4.07193
H          6.41921        1.01719       -4.19366
H          7.58337        2.60444       -2.60832
H          6.66062        3.56314       -1.45302
H          6.85293        1.83078       -1.20158
H          5.20279        4.42730       -3.35909
H          6.06083        3.44055       -4.53490
H          4.31142        3.29944       -4.37474
H         -1.85371       -1.39391       -5.09351
H          2.57176        1.83114       -4.59289
H         -0.41153       -0.57722       -5.68808
H         -1.44823        0.21064       -4.49449
H          1.23630        1.14930       -5.51649
H          2.02861        0.19065       -4.26200
