111
-148.56072114
P         -2.57078       -2.21737       -0.60301
P          0.02261       -0.36995       -0.45785
C         -1.57951       -1.92450       -2.09275
C         -0.44486       -1.14538       -2.01836
C         -3.25111       -3.93733       -0.55398
C         -2.52643       -4.78341        0.47003
C         -1.96207       -2.46973       -3.30169
H         -2.86239       -3.05917       -3.35982
C         -1.19648       -2.24457       -4.43272
H         -1.49376       -2.67158       -5.37661
C         -0.05370       -1.47236       -4.35344
H          0.54306       -1.29732       -5.23346
C          0.32057       -0.91739       -3.14289
H          1.20748       -0.30821       -3.06655
Pd        -1.26526       -1.44989        1.13077
Cl        -2.84011       -2.19703        2.54239
Cl         0.10741       -0.64596        2.71269
C         -4.74415       -3.70446       -0.25433
C         -4.13869       -1.23741       -0.57911
H         -2.93081       -5.79762        0.50862
H         -1.45920       -4.85102        0.24553
H         -2.62384       -4.35214        1.46748
H         -4.89829       -3.76452        0.83193
H         -5.35309       -4.51422       -0.68439
H         -4.20691       -0.79803        0.42482
C         -5.22257       -2.31548       -0.76659
C         -4.12771       -0.15939       -1.64205
H         -3.12353       -4.35613       -1.56009
H         -5.47142       -2.38502       -1.83449
H         -6.15460       -2.01195       -0.26595
H         -4.01544       -0.59751       -2.63549
H         -5.05595        0.41670       -1.63680
H         -3.29609        0.53423       -1.49665
C         -1.09494        4.04850       -0.37005
C         -0.16996        3.56629       -1.33371
C          0.14516        2.21722       -1.32120
C         -0.47695        1.35126       -0.45986
C         -1.46698        1.79218        0.37947
C         -1.82965        3.12741        0.42224
O         -1.22015        5.44266       -0.13962
C          0.49720        4.45003       -2.40113
H          0.90337        1.82958       -1.98048
H         -1.94793        1.08560        1.03224
C         -3.00166        3.52289        1.33611
C          4.45603       -0.72011        0.52003
C          3.73051        0.43858        0.89668
C          2.38129        0.49295        0.59140
C          1.77315       -0.50842       -0.11856
C          2.49026       -1.58540       -0.56949
C          3.84511       -1.70089       -0.30347
O          5.77912       -0.91635        0.99761
C          4.36643        1.61200        1.65795
H          1.77592        1.31964        0.92161
H          1.97148       -2.34208       -1.13207
C          4.62296       -2.89149       -0.88615
C         -0.18556        5.82202       -2.53765
C          1.98083        4.64724       -2.04835
C          0.39245        3.75562       -3.77709
C         -4.17455        2.53980        1.12506
C         -2.54831        3.45385        2.80393
C         -3.53542        4.93207        1.02627
C         -0.29969        5.92287        0.82639
H          0.23820        6.39132       -3.36463
H         -1.25344        5.70354       -2.71784
H         -0.06374        6.41483       -1.63428
H          2.49926        3.69033       -1.99786
H          2.48114        5.25978       -2.79794
H          2.09428        5.13850       -1.08380
H          0.94814        2.81976       -3.80215
H         -0.64726        3.53627       -4.01837
H          0.79354        4.39240       -4.56520
H         -5.04560        2.84444        1.70454
H         -4.46462        2.50709        0.07541
H         -3.91708        1.52932        1.43727
H         -3.36747        3.70572        3.47684
H         -2.20166        2.45246        3.05756
H         -1.73098        4.14602        2.99646
H         -3.79811        5.02022       -0.02735
H         -4.42272        5.15511        1.61830
H         -2.79164        5.69333        1.24926
H         -0.43074        6.99869        0.94443
H         -0.47191        5.43243        1.78299
H          0.72049        5.71696        0.50643
C          5.84828       -1.60619        2.23927
C          5.84930        1.78194        1.28169
C          3.65800        2.93996        1.30263
C          4.22508        1.36947        3.16824
C          6.08661       -2.51070       -1.17461
C          4.56661       -4.06783        0.10005
C          4.00352       -3.34252       -2.22880
H          6.43526        0.91411        1.57343
H          5.95928        1.91250        0.20565
H          6.28151        2.65216        1.77506
H          4.18376        3.78829        1.74018
H          3.62895        3.08540        0.22338
H          2.63696        2.96872        1.68020
H          4.72923        0.45427        3.46924
H          4.65299        2.19355        3.73844
H          3.17544        1.27487        3.44566
H          6.61853       -2.25791       -0.26082
H          6.61983       -3.33440       -1.64861
H          6.13496       -1.64835       -1.83870
H          5.09924       -4.93322       -0.29345
H          5.01453       -3.80347        1.05490
H          3.53477       -4.36315        0.28878
H          3.01685       -3.78216       -2.09092
H          4.62581       -4.09843       -2.70731
H          3.91167       -2.50123       -2.91535
H          6.44268       -2.51208        2.12142
H          6.33414       -0.97470        2.98283
H          4.84734       -1.86938        2.58377
