75
-122.81793239
P          1.87110       -0.54546        0.03103
C          1.69236       -1.56806       -1.43491
C          1.81805       -1.02200       -2.69155
C          1.76735       -1.84069       -3.80455
C          1.59293       -3.20171       -3.64929
C          1.46513       -3.74483       -2.38610
C          1.51796       -2.92340       -1.27421
H          1.43702       -3.33317       -0.27954
H          1.32502       -4.80638       -2.26530
H          1.54914       -3.84058       -4.51616
H          1.86060       -1.41585       -4.79042
H          1.95216        0.04219       -2.79571
C          3.21640       -1.26761        0.98487
C          4.47109       -1.30512        0.41997
C          5.52241       -1.87543        1.11494
C          5.30636       -2.41340        2.36798
C          4.04270       -2.38761        2.92375
C          2.99393       -1.81694        2.22639
H          2.00310       -1.79101        2.65009
H          3.87304       -2.80957        3.90071
H          6.12451       -2.85681        2.91175
H          6.50672       -1.90157        0.67711
H          4.61992       -0.89736       -0.56777
C          2.23644        1.15914       -0.41957
C          3.39522        1.81242       -0.07061
C          3.56355        3.15809       -0.36577
C          2.52052        3.84189       -0.98911
C          1.34743        3.20374       -1.32594
C          1.20294        1.83430       -1.05184
O          0.01705        1.14947       -1.36419
C         -1.17755        1.82130       -1.05538
C         -1.33303        3.19094       -1.32174
C         -2.51062        3.81773       -0.97963
C         -3.54386        3.12344       -0.35152
C         -3.37432        1.77172       -0.08708
C         -2.21064        1.12957       -0.44057
P         -1.83933       -0.58531       -0.03224
C         -3.15994       -1.31564        0.94987
C         -2.90052       -1.89316        2.17140
C         -3.92968       -2.47172        2.89111
C         -5.21105       -2.47802        2.37703
C         -5.46436       -1.91286        1.14315
C         -4.43269       -1.33440        0.42590
H         -4.61101       -0.90811       -0.54904
H         -6.46255       -1.92451        0.73728
H         -6.01385       -2.92788        2.93811
H         -3.73077       -2.91548        3.85277
H         -1.89582       -1.88588        2.56181
C         -1.72464       -1.56552       -1.53737
C         -1.51604       -0.96545       -2.75789
C         -1.52112       -1.72715       -3.91137
C         -1.73026       -3.08967       -3.83405
C         -1.92996       -3.69094       -2.60723
C         -1.92926       -2.92418       -1.45577
H         -2.10224       -3.37691       -0.49219
H         -2.08973       -4.75482       -2.54595
H         -1.72971       -3.68584       -4.73192
H         -1.35401       -1.25839       -4.86714
H         -1.33525        0.09533       -2.80141
Pd        -0.01562       -0.04750        1.38411
Cl        -1.61439        0.85121        2.69541
Cl         1.60423        0.85065        2.67923
H         -4.14856        1.22769        0.42388
C         -4.81145        3.80977        0.01484
H         -5.57344        3.64967       -0.74896
H         -4.66189        4.88488        0.12174
H         -5.19926        3.43408        0.96265
H         -2.62524        4.86599       -1.19209
S          0.00207        4.07413       -2.08615
H          2.62291        4.89195       -1.19905
C          4.80484        3.87052        0.03767
H          4.16542        1.28212        0.46090
H          4.71617        4.25407        1.05485
H          5.66840        3.20502        0.00274
H          5.00846        4.71320       -0.62425
