115
-277.94092654
P         -1.73508       -0.68927        0.03576
P          1.91292        0.44952        0.02670
C         -2.14021       -2.43211        0.21404
C         -1.14280       -3.34881        0.46801
H         -0.16466       -3.01747        0.77511
C         -1.37708       -4.68893        0.23979
H         -0.58137       -5.41289        0.32471
C         -2.59844       -5.10733       -0.26261
C         -3.63132       -4.18998       -0.39228
H         -4.57375       -4.51737       -0.80093
C         -3.40426       -2.84972       -0.14688
H         -4.17520       -2.12030       -0.34086
C         -3.15037        0.25163        0.65593
C         -3.46490        0.29774        1.99367
H         -2.85243       -0.23343        2.70510
C         -4.55843        1.01703        2.42648
H         -4.81050        1.07466        3.47378
C         -5.35144        1.68833        1.51776
C         -5.03437        1.63500        0.17401
H         -5.65372        2.17176       -0.52690
C         -3.93885        0.91601       -0.25575
H         -3.69654        0.87407       -1.30516
C         -1.49222       -0.25719       -1.72275
C         -1.02458        1.03642       -1.84908
H         -0.78510        1.59389       -0.96027
C         -0.70955        1.57698       -3.09483
C         -1.09133        0.86200       -4.22382
H         -0.89677        1.27414       -5.19982
C         -1.56082       -0.43103       -4.10715
H         -1.72802       -1.01394       -4.99709
C         -1.65593       -1.05634       -2.86405
C          1.69020       -0.11609       -1.69440
C          1.21851       -1.41624       -1.74322
H          0.95710       -1.91478       -0.82419
C          0.92202       -2.03516       -2.95712
C          1.32205       -1.39207       -4.12285
H          1.14119       -1.86468       -5.07378
C          1.78769       -0.09310       -4.08267
H          1.96586        0.43212       -5.00576
C          1.86553        0.61068       -2.88103
C         -1.57645       -2.56722       -2.84628
H         -2.23309       -2.97753       -3.62219
H         -2.00738       -2.94202       -1.92183
C         -0.11652       -3.12404       -3.01877
H          0.10342       -3.88612       -2.26350
H         -0.02268       -3.65293       -3.97388
C          0.32603        2.66370       -3.19871
H          0.08037        3.46366       -2.49180
H          0.25038        3.13706       -4.18401
C          1.78376        2.12090       -2.96012
H          2.45377        2.47718       -3.75064
H          2.19445        2.55010       -2.05033
C          1.91649        2.23859        0.21719
C          0.75212        2.92312        0.49221
C          3.07104        2.91934       -0.10519
C          0.70858        4.29024        0.30983
C          3.02395        4.28530       -0.29393
C          1.82718        4.96838       -0.14575
C          3.46467       -0.20883        0.67907
C          3.94568       -1.38996        0.16295
C          4.16369        0.44492        1.66796
C          5.12670       -1.91981        0.63753
H          3.40414       -1.89297       -0.62060
C          5.34596       -0.08533        2.14406
H          3.77624        1.36347        2.07887
C          5.83190       -1.27280        1.63381
H          5.52220       -2.83876        0.23495
H          5.91076        0.41412        2.91549
Pd         0.16341       -0.32915        1.39139
Cl        -1.21717       -1.34096        2.85841
Cl         1.66020        0.21316        2.97940
H          3.88479        4.81421       -0.66996
H          3.97752        2.37219       -0.31375
H         -0.21691        4.83557        0.41385
H         -0.13214        2.39107        0.80120
C         -4.07773       -7.00463       -1.06984
C         -2.63493       -6.42755       -0.99180
C         -2.01611       -6.15119       -2.39978
F         -4.02680       -8.24777       -1.57317
F         -4.57378       -7.03027        0.17604
F         -4.83764       -6.21670       -1.84292
F         -1.86394       -7.32136       -0.36778
F         -0.73850       -5.79400       -2.21222
F         -2.08969       -7.25519       -3.15506
F         -2.67053       -5.13218       -2.97366
C         -6.08207        4.02077        1.97249
C         -6.50631        2.52465        2.00655
C         -7.77565        2.24648        1.14817
F         -5.03547        4.15914        2.80040
F         -5.71660        4.34729        0.72412
F         -7.10466        4.78564        2.38348
F         -6.79655        2.21139        3.27234
F         -7.96803        0.91898        1.12942
F         -8.83020        2.85885        1.70834
F         -7.58086        2.69370       -0.10022
C          7.03542       -3.33530        2.42341
C          7.15382       -1.81271        2.11745
C          8.23720       -1.50671        1.04387
F          8.16395       -3.75562        3.01545
F          5.99085       -3.50238        3.24834
F          6.82444       -4.00772        1.28335
F          7.51460       -1.19924        3.24793
F          8.30889       -0.17321        0.91544
F          9.41834       -1.99877        1.44675
F          7.86878       -2.05408       -0.12370
C          2.92823        7.17058       -0.74892
C          1.62935        6.31442       -0.79559
C          1.15627        6.01590       -2.25341
F          2.64714        8.41782       -1.15733
F          3.36055        7.18604        0.52063
F          3.86041        6.61808       -1.53754
F          0.66264        6.99277       -0.17265
F         -0.05540        5.45189       -2.17148
F          1.10038        7.15330       -2.95943
F          2.00120        5.14073       -2.81678
