72
-98.09628243
Fe        -0.00421        2.82024        0.08330
P          1.85566       -0.04413        0.00376
P         -1.84771       -0.06910        0.02677
C          1.39562        1.56238        0.76047
C          0.35991        1.77020        1.75833
C          0.28678        3.19364        2.04159
C          1.30656        3.86820        1.25826
C          1.97583        2.86080        0.45211
C         -1.41674        1.57939       -0.66023
C         -2.00110        2.85557       -0.27656
C         -1.36596        3.90624       -1.05371
C         -0.36464        3.28072       -1.89715
C         -0.41412        1.84672       -1.67492
C          3.17976       -0.85629        1.03584
C          4.46771       -0.68935        0.20055
C          2.86291        0.26453       -1.52890
C          4.28855        0.33507       -0.94897
C         -3.19924       -0.77267       -1.03837
C         -4.39294        0.08598       -0.58690
C         -2.91287        0.18681        1.53211
C         -4.32238        0.41886        0.93320
H         -0.28737        0.99901        2.17524
H         -0.39342        3.66904        2.75275
H          1.51934        4.93975        1.26019
H          2.78832        3.04320       -0.25439
H         -2.79761        2.99518        0.45720
H          0.20156        1.09903       -2.17031
Cl         1.57382       -3.09460       -0.36122
Cl        -1.58447       -3.07398        0.16143
Pd         0.02094       -1.49691       -0.02134
H          2.90942       -1.91561        1.12068
C          3.29246       -0.25760        2.43595
H          2.55227        1.22660       -1.95381
C          2.73020       -0.84836       -2.56915
H          4.77006       -1.65982       -0.21900
H          5.29618       -0.38667        0.85635
H          4.49081        1.34871       -0.57240
H          5.02762        0.16033       -1.74531
H         -1.59088        4.97367       -1.00121
H          0.28624        3.79485       -2.60802
H          4.24872       -0.56304        2.88308
H          3.56860       -0.77760       -3.27602
H         -3.35464       -1.81299       -0.73011
C         -2.90036       -0.70832       -2.53754
H         -2.54685        1.08377        2.04536
C         -2.88410       -1.01090        2.48017
H         -5.34292       -0.40943       -0.84148
H         -4.38383        1.01757       -1.17179
H         -4.65396        1.45193        1.11459
H         -5.04221       -0.20884        1.47686
H         -3.84720       -0.63142       -3.09006
H         -3.12683       -1.91443        1.90571
C          2.15209       -0.66584        3.35256
H          1.19153       -0.36993        2.93597
H          2.12061       -1.74873        3.48754
H          2.23545       -0.21138        4.34237
C          1.42136       -0.83596       -3.33803
H          1.29941        0.09131       -3.90110
H          1.35755       -1.66137       -4.05082
H          0.57132       -0.92453       -2.66413
C         -2.11579       -1.91167       -3.03906
H         -2.69815       -2.82968       -2.93952
H         -1.83445       -1.81275       -4.08984
H         -1.20367       -2.06104       -2.46281
C         -1.56894       -1.19678        3.21730
H         -1.60052       -2.04951        3.89938
H         -0.74876       -1.37422        2.52314
H         -1.31716       -0.31496        3.80926
H          3.35064        0.83520        2.34971
H          2.86504       -1.81287       -2.06298
H         -2.36560        0.22515       -2.75445
H         -3.69955       -0.90601        3.20954
