72
-98.09991180
Fe        -0.01420        2.88039        0.00834
P          1.80217        0.00515       -0.05904
P         -1.80682       -0.01691        0.06004
C          1.39477        1.61978        0.70825
C          0.39041        1.83904        1.73296
C          0.34355        3.26039        2.02166
C          1.33512        3.91554        1.18839
C          2.01696        2.89938        0.40527
C         -1.41872        1.60152       -0.70763
C         -2.03794        2.87892       -0.39048
C         -1.38728        3.90407       -1.18750
C         -0.37905        3.25845       -2.00716
C         -0.41655        1.83436       -1.73061
C          3.12749       -0.79289        0.97030
C          4.34707        0.05537        0.57226
C          2.88178        0.33136       -1.54121
C          4.29647        0.47285       -0.92691
C         -3.12805       -0.82863       -0.96389
C         -4.35712        0.00003       -0.55343
C         -2.88053        0.29252        1.54979
C         -4.30057        0.41871        0.94521
H         -0.22972        1.06826        2.18627
H         -0.31585        3.74765        2.74322
H          1.56114        4.98420        1.18378
H          2.81897        3.06909       -0.31535
H         -2.84055        3.03839        0.33204
H          0.21103        1.07178       -2.18734
Cl         1.51596       -3.07646       -0.55052
Cl        -1.45968       -3.09722        0.57203
Pd         0.00517       -1.49236       -0.02065
H          3.25166       -1.81843        0.60287
C          2.82767       -0.80453        2.47237
H          2.54550        1.27504       -1.98700
C          2.81629       -0.79059       -2.57613
H          5.28121       -0.47967        0.80439
H          4.35974        0.95371        1.20702
H          4.67068        1.49976       -1.05151
H          4.99264       -0.15376       -1.50167
H         -1.62299        4.97034       -1.17909
H          0.27459        3.75286       -2.72907
H          3.77461       -0.74581        3.02697
H          3.65210       -0.67665       -3.28059
H         -3.23365       -1.85797       -0.60119
C         -2.84149       -0.82659       -2.46874
H         -2.55294        1.23875        1.99660
C         -2.79513       -0.83192        2.58037
H         -5.28472       -0.54969       -0.77730
H         -4.39008        0.89814       -1.18781
H         -4.68440        1.44186        1.07169
H         -4.98632       -0.21452        1.52525
H         -3.79474       -0.78343       -3.01391
H         -2.97515       -1.78572        2.06773
C          2.05587       -2.03760        2.91942
H          1.13336       -2.16051        2.35392
H          2.64036       -2.94586        2.76076
H          1.79237       -1.99724        3.97868
C          1.51042       -0.85022       -3.34894
H          1.34085        0.06746       -3.91533
H          1.49242       -1.68030       -4.05887
H          0.66393       -0.98134       -2.67709
C         -2.05025       -2.04124       -2.93150
H         -1.11579       -2.14498       -2.38226
H         -2.61201       -2.96254       -2.76605
H         -1.80504       -1.99234       -3.99480
C         -1.48096       -0.88257        3.33943
H         -1.44620       -1.71790        4.04256
H         -0.64042       -0.99876        2.65738
H         -1.31583        0.03252        3.91127
H          2.28558        0.11275        2.73519
H          2.99982       -1.74455       -2.06507
H         -2.32025        0.10274       -2.73147
H         -3.62491       -0.72795        3.29345
