105
-153.07218896
Cl        -0.77479        2.06147       -2.87368
Pd         0.11498        1.50229       -0.88741
P          1.34015        0.69891        0.92331
N          0.70939       -0.59757        1.92671
C          0.05926       -1.79690        1.67327
C         -0.11239       -2.34595        0.37847
C         -0.89253       -3.50993        0.21692
C         -1.06564       -4.07650       -1.17319
C         -1.66747       -5.48993       -1.22041
C         -2.82153       -5.63177       -0.22380
C         -2.33610       -5.35832        1.20750
C         -1.47287       -4.12808        1.32662
C         -1.24168       -3.60527        2.59194
C         -0.49241       -2.47049        2.76270
H         -0.35182       -2.06190        3.74832
H         -1.67788       -4.09501        3.44613
H         -3.19250       -5.25747        1.88664
H         -3.61377       -4.91831       -0.48302
H         -2.00032       -5.73863       -2.23801
H         -1.69714       -3.38844       -1.74736
C          0.67563       -1.86719       -0.78301
C          0.02321       -1.25590       -1.88798
C          0.75847       -1.03661       -3.05636
C          2.07271       -1.41539       -3.14676
C          2.71268       -2.05168       -2.09043
C          4.12479       -2.53776       -2.28445
C          4.45399       -3.75029       -1.40300
C          4.10810       -3.45323        0.05901
C          2.62526       -3.07602        0.23094
C          2.01655       -2.27922       -0.90210
H          2.03222       -3.98967        0.35816
H          4.73850       -2.62967        0.41228
H          5.50990       -4.03799       -1.50722
H          4.81643       -1.71807       -2.06190
H          2.62050       -1.23607       -4.05631
H          0.27869       -0.54721       -3.88562
N         -1.31787       -0.85225       -1.84226
P         -1.83914        0.19973       -0.52378
C         -2.75697       -0.67522        0.74087
C         -3.58692       -1.69712        0.34734
C         -4.35658       -2.35786        1.28810
C         -4.30671       -1.98741        2.62511
C         -3.46999       -0.94408        2.99916
C         -2.70320       -0.28291        2.05708
H         -2.05156        0.52341        2.34764
H         -3.41658       -0.65757        4.03558
C         -5.09681       -2.72860        3.64630
H         -4.99703       -3.16981        0.98912
H         -3.62266       -1.97632       -0.69390
C         -2.97030        1.46326       -1.11933
C         -2.96365        2.71629       -0.55323
C         -3.83968        3.68195       -1.01381
C         -4.72760        3.39793       -2.04250
C         -4.73302        2.12019       -2.58562
C         -3.85487        1.15570       -2.12486
H         -3.86040        0.16206       -2.54343
H         -5.42866        1.88524       -3.37299
C         -5.68425        4.43206       -2.52503
H         -3.83653        4.66593       -0.57685
H         -2.27039        2.93897        0.24173
H         -1.64955       -0.39134       -2.67983
H          0.92177       -0.36879        2.89027
C          1.28217        2.17003        1.95575
C          0.04976        2.68324        2.28231
C         -0.03916        3.82324        3.06015
C          1.10892        4.46046        3.51057
C          2.34479        3.92309        3.17617
C          2.43003        2.78368        2.39761
H          3.38961        2.37616        2.12613
H          3.24119        4.40530        3.52699
C          1.01501        5.67500        4.36712
H         -1.00313        4.22646        3.31969
H         -0.83833        2.19602        1.91592
C          3.06554        0.40012        0.53573
C          3.60635        0.77323       -0.67158
C          4.95400        0.58176       -0.91169
C          5.77355        0.02755        0.06200
C          5.21217       -0.33536        1.27857
C          3.86148       -0.14834        1.51357
H          3.42273       -0.42412        2.45958
H          5.83773       -0.77111        2.03882
C          7.21706       -0.21616       -0.20924
H          5.37852        0.86671       -1.85920
H          2.97700        1.22869       -1.41780
Cl         1.64266        3.15321       -0.92146
H         -1.76828       -6.22056        1.57690
H         -0.88912       -6.22461       -0.97871
H         -3.28354       -6.62639       -0.29888
H         -0.09256       -4.06922       -1.68024
H          4.36646       -4.30897        0.69843
H          2.48831       -2.51275        1.16186
H          4.28436       -2.77862       -3.34321
H          3.87451       -4.61698       -1.74525
H         -4.51950       -3.56022        4.05275
H         -5.37841       -2.07751        4.47504
H         -6.01414       -3.13378        3.21692
H         -5.26021        5.43298       -2.43359
H         -5.93703        4.27534       -3.57457
H         -6.60933        4.40384       -1.94765
H          0.94856        5.40167        5.42108
H          1.88885        6.31546        4.23968
H          0.13297        6.26581        4.11606
H          7.60810        0.49899       -0.93426
H          7.80987       -0.12167        0.70161
H          7.37153       -1.21940       -0.60901
