111
-148.55473382
P         -1.68519       -2.78828       -0.07808
P         -0.44496        0.10021       -0.55963
C         -1.54452       -2.12162       -1.76311
C         -1.07412       -0.84024       -1.96217
C         -0.54597       -4.22707        0.14354
C          0.52344       -3.90501        1.16602
C         -1.87854       -2.90464       -2.84965
H         -2.20751       -3.91885       -2.69297
C         -1.76602       -2.39205       -4.13062
H         -2.03098       -3.00260       -4.97836
C         -1.30872       -1.10267       -4.32462
H         -1.21560       -0.70606       -5.32221
C         -0.95104       -0.32737       -3.23618
H         -0.55777        0.66833       -3.36976
Pd        -1.35797       -0.94583        1.27842
Cl        -2.52157       -2.00767        2.87266
Cl        -0.92404        0.91795        2.45921
C         -1.49115       -5.37396        0.55557
C         -3.31288       -3.60992        0.24573
H          1.19346       -4.75326        1.32510
H          1.12822       -3.05005        0.85611
H          0.07246       -3.65237        2.12789
H         -1.44880       -5.48823        1.64740
H         -1.13295       -6.33080        0.14678
H         -3.56719       -3.37219        1.28664
C         -2.96168       -5.10371        0.12552
C         -4.40794       -3.12731       -0.68158
H         -0.10586       -4.42110       -0.84335
H         -3.10746       -5.42149       -0.91595
H         -3.66294       -5.71020        0.71902
H         -4.17338       -3.35464       -1.72172
H         -5.36339       -3.60388       -0.45084
H         -4.54171       -2.04580       -0.60518
C         -0.85762        4.62441       -0.79511
C          0.36355        4.00842       -1.17086
C          0.45550        2.62910       -1.08445
C         -0.62469        1.87085       -0.71538
C         -1.83773        2.45203       -0.45607
C         -1.99846        3.82662       -0.52241
O         -0.92629        6.03617       -0.65492
C          1.59182        4.81226       -1.62560
H          1.38486        2.12490       -1.28637
H         -2.65762        1.81277       -0.17611
C         -3.38613        4.42865       -0.25177
C          3.78208       -1.31012        0.37114
C          3.19157       -0.28583        1.15490
C          1.90420        0.11657        0.84353
C          1.24909       -0.39064       -0.24639
C          1.85266       -1.30738       -1.06655
C          3.13440       -1.76215       -0.80725
O          4.99743       -1.91479        0.78896
C          3.89638        0.35691        2.35878
H          1.36981        0.80142        1.47880
H          1.29628       -1.68429       -1.90634
C          3.78189       -2.76447       -1.77529
C          2.44566        5.17265       -0.40045
C          2.45741        3.98140       -2.60022
C          1.17259        6.08948       -2.37588
C         -4.49975        3.45490       -0.70001
C         -3.53945        4.68751        1.25487
C         -3.59143        5.73480       -1.04045
C         -0.60753        6.50441        0.64966
H          3.33284        5.73332       -0.69371
H          1.88485        5.77749        0.30781
H          2.77176        4.27218        0.11902
H          2.93094        3.13762       -2.10039
H          1.85521        3.59938       -3.42416
H          3.25581        4.59043       -3.02361
H          0.53164        5.84436       -3.22209
H          0.62393        6.76854       -1.72808
H          2.04287        6.62576       -2.75338
H         -5.47886        3.92805       -0.62865
H         -4.35163        3.14673       -1.73467
H         -4.53077        2.56261       -0.07666
H         -4.52180        5.10033        1.48270
H         -3.42257        3.76178        1.81791
H         -2.78898        5.38789        1.61322
H         -4.59880        6.12486       -0.89712
H         -2.89322        6.50503       -0.72307
H         -3.44105        5.56685       -2.10634
H          0.23708        7.19108        0.59543
H         -1.45865        7.04516        1.06310
H         -0.35582        5.66780        1.30277
C          4.82155       -3.02795        1.65688
C          5.42290        0.38511        2.16279
C          3.43972        1.82369        2.53272
C          3.53663       -0.42412        3.63180
C          5.30848       -2.57382       -1.82870
C          3.44192       -4.19548       -1.33175
C          3.25018       -2.55738       -3.21194
H          5.91456        0.89817        2.98894
H          5.83557       -0.61888        2.10744
H          5.68129        0.90315        1.23981
H          4.02527        2.32258        3.30456
H          3.56637        2.37975        1.60444
H          2.39484        1.88983        2.83181
H          3.85555       -1.46137        3.56165
H          4.01194        0.01637        4.50779
H          2.45896       -0.41963        3.79414
H          5.76820       -2.78337       -0.86605
H          5.76138       -3.24056       -2.56206
H          5.55779       -1.54907       -2.10202
H          3.80324       -4.39379       -0.32570
H          2.36403       -4.35351       -1.33432
H          3.89086       -4.92868       -2.00127
H          2.19950       -2.83137       -3.29679
H          3.79967       -3.17667       -3.92056
H          3.36038       -1.51799       -3.52010
H          5.28618       -3.91047        1.21741
H          5.30653       -2.82871        2.61228
H          3.76047       -3.21911        1.82154
