75
-122.81244902
P          1.90627       -0.53013        0.16225
C          1.62251       -1.58547       -1.26313
C          1.90641       -1.13338       -2.53139
C          1.80222       -1.99619       -3.60683
C          1.41990       -3.30719       -3.40162
C          1.13764       -3.75627       -2.12662
C          1.24343       -2.89138       -1.05210
H          1.04793       -3.23135       -0.04700
H          0.83650       -4.77856       -1.96749
H          1.33459       -3.97971       -4.23946
H          2.01803       -1.64481       -4.60235
H          2.21179       -0.10937       -2.67287
C          3.34087       -1.22962        1.00952
C          4.29221       -1.86257        0.24050
C          5.40983       -2.41691        0.83817
C          5.57085       -2.33193        2.20650
C          4.62075       -1.68994        2.97475
C          3.50819       -1.13623        2.37140
H          2.77864       -0.60687        2.95786
H          4.74893       -1.61397        4.04208
H          6.44048       -2.76357        2.67464
H          6.15180       -2.91500        0.23597
H          4.15442       -1.92386       -0.82735
C          2.27450        1.15410       -0.34115
C          3.43784        1.79935        0.00619
C          3.61866        3.14023       -0.30451
C          2.58190        3.82545       -0.93733
C          1.40649        3.19217       -1.27666
C          1.25379        1.82486       -0.99743
O          0.07703        1.13610       -1.33276
C         -1.12777        1.80233       -1.05703
C         -1.27851        3.17428       -1.31351
C         -2.46529        3.79484       -0.99283
C         -3.51821        3.08797       -0.41343
C         -3.35024        1.73523       -0.15308
C         -2.17676        1.09876       -0.48355
P         -1.80701       -0.62793       -0.11248
C         -3.11486       -1.38205        0.87104
C         -2.82548       -2.02878        2.05057
C         -3.84051       -2.62705        2.77427
C         -5.13824       -2.58444        2.30515
C         -5.42191       -1.95174        1.11138
C         -4.40437       -1.35364        0.39029
H         -4.60723       -0.87960       -0.55727
H         -6.43292       -1.92661        0.73924
H         -5.93005       -3.04966        2.86931
H         -3.61761       -3.12502        3.70359
H         -1.80781       -2.06338        2.40429
C         -1.75431       -1.54703       -1.66303
C         -1.39724       -0.92297       -2.83621
C         -1.44841       -1.61462       -4.03180
C         -1.85162       -2.93489       -4.04450
C         -2.20017       -3.56296       -2.86534
C         -2.15358       -2.86448       -1.67227
H         -2.43927       -3.33834       -0.74679
H         -2.51194       -4.59441       -2.87377
H         -1.88734       -3.47781       -4.97484
H         -1.16501       -1.12586       -4.94938
H         -1.06073        0.09932       -2.80822
Pd        -0.06702       -0.05255        1.41459
Cl        -1.77761        0.82946        2.59604
Cl         1.41238        1.01531        2.73711
H         -4.13274        1.18797        0.34098
C         -4.77496        3.78100       -0.02402
H         -4.96022        4.64821       -0.65911
H         -4.72117        4.12497        1.00962
H         -5.63422        3.11497       -0.11308
H         -2.57262        4.84791       -1.18434
S          0.06927        4.06857       -2.04345
H          2.69164        4.87339       -1.15408
C          4.86348        3.84805        0.09587
H          4.20081        1.26359        0.54407
H          4.76941        4.25368        1.10395
H          5.72037        3.17321        0.08294
H          5.08187        4.67460       -0.58152
