72
-98.10374512
Fe        -0.01151        2.83055       -0.00183
P          1.83088       -0.01004       -0.05718
P         -1.82609       -0.02534        0.05977
C          1.40017        1.59940        0.70773
C          0.39777        1.80046        1.73820
C          0.32659        3.22175        2.02145
C          1.30999        3.89345        1.19187
C          2.00316        2.88838        0.40446
C         -1.42102        1.59526       -0.69710
C         -2.03323        2.87599       -0.37789
C         -1.36619        3.89760       -1.16641
C         -0.37265        3.24757       -2.00086
C         -0.41631        1.82403       -1.71973
C          3.18392       -0.77121        0.96400
C          4.38525        0.08794        0.53488
C          2.88287        0.32148       -1.55762
C          4.30572        0.48489       -0.96837
C         -3.15652       -0.80889       -0.97500
C         -4.37318        0.03866       -0.56609
C         -2.90254        0.29003        1.54661
C         -4.31673        0.44731        0.93544
H         -0.20599        1.01894        2.19584
H         -0.33870        3.69861        2.74437
H          1.51902        4.96550        1.18765
H          2.80263        3.06961       -0.31650
H         -2.83305        3.04103        0.34646
H          0.19967        1.05595       -2.18422
Cl         1.56374       -3.05470       -0.44116
Cl        -1.51770       -3.06602        0.48235
Pd         0.00796       -1.48389       -0.01038
H          3.31839       -1.80121        0.61352
C          2.90774       -0.75922        2.46899
H          2.52765        1.25789       -2.00403
C          2.81284       -0.80959       -2.58235
H          5.33015       -0.43139        0.75891
H          4.39613        0.99469        1.15753
H          4.66740        1.51372       -1.11266
H          4.99869       -0.14242       -1.54619
H         -1.59337        4.96577       -1.15449
H          0.28282        3.73909       -2.72319
H          3.86479       -0.73097        3.00842
H          3.63969       -0.69655       -3.29747
H         -3.28317       -1.83817       -0.61934
C         -2.86085       -0.80356       -2.47741
H         -2.55959        1.22594        2.00364
C         -2.84303       -0.84503        2.56704
H         -5.30904       -0.49349       -0.79781
H         -4.38730        0.94082       -1.19537
H         -4.68154        1.47684        1.06611
H         -5.01764       -0.17597        1.50806
H         -3.81034       -0.75686       -3.02879
H         -3.03743       -1.79093        2.04497
C          2.09728       -1.95812        2.93776
H          1.16250       -2.04780        2.38685
H          2.64352       -2.88945        2.77648
H          1.85188       -1.90020        4.00056
C          1.49847       -0.88312       -3.33931
H          1.31810        0.02786       -3.91314
H          1.47579       -1.72073       -4.04021
H          0.66064       -1.01041       -2.65614
C         -2.06891       -2.01889       -2.93675
H         -1.14205       -2.12850       -2.37587
H         -2.63597       -2.93885       -2.78227
H         -1.81049       -1.96596       -3.99672
C         -1.53349       -0.92543        3.33103
H         -1.51817       -1.76414        4.03081
H         -0.69354       -1.05606        2.65118
H         -1.35173       -0.01591        3.90670
H          2.40371        0.17968        2.73129
H          3.00778       -1.75810       -2.06519
H         -2.33553        0.12512       -2.73420
H         -3.67414       -0.73224        3.27722
