111
-148.55478436
P         -1.71640       -2.71383       -0.05588
P         -0.43859        0.11907       -0.59934
C         -1.63707       -2.07341       -1.75245
C         -1.13661       -0.80850       -1.97901
C         -0.64087       -4.20290        0.14937
C          0.51296       -3.90263        1.08258
C         -2.04931       -2.84999       -2.81620
H         -2.40780       -3.85038       -2.63658
C         -1.97973       -2.34642       -4.10378
H         -2.30483       -2.95082       -4.93483
C         -1.48933       -1.07361       -4.32597
H         -1.43077       -0.68429       -5.32905
C         -1.05712       -0.30483       -3.26006
H         -0.64302        0.67881       -3.41708
Pd        -1.35431       -0.87130        1.27521
Cl        -1.80260       -2.09525        3.09831
Cl        -0.93004        1.03809        2.38732
C         -1.61469       -5.27702        0.67520
C         -3.36024       -3.43060        0.40021
H          1.14928       -4.77888        1.22736
H          1.13528       -3.09146        0.69971
H          0.14500       -3.59361        2.06291
H         -1.50548       -5.34526        1.76626
H         -1.33484       -6.26912        0.28992
H         -3.53489       -3.12911        1.44185
C         -3.09468       -4.94510        0.32867
C         -4.47945       -2.93148       -0.48868
H         -0.28168       -4.46050       -0.85563
H         -3.32500       -5.29893       -0.68569
H         -3.78542       -5.48609        0.99350
H         -5.44349       -3.34630       -0.18562
H         -4.55401       -1.84201       -0.45672
H         -4.31344       -3.21702       -1.52789
C         -0.84183        4.64825       -0.78697
C          0.44337        4.05452       -0.87178
C          0.53252        2.67387       -0.81348
C         -0.59212        1.89426       -0.74263
C         -1.84059        2.45773       -0.75994
C         -2.00204        3.83269       -0.82108
O         -0.96384        6.05516       -0.63398
C          1.73307        4.88331       -0.97973
H          1.49095        2.18510       -0.80357
H         -2.69361        1.80278       -0.70640
C         -3.42334        4.41431       -0.87910
C          3.73784       -1.44886        0.29858
C          3.17337       -0.43454        1.11395
C          1.90135        0.01736        0.80855
C          1.24107       -0.42782       -0.30521
C          1.82266       -1.33212       -1.15447
C          3.08668       -1.83742       -0.90054
O          4.92772       -2.10917        0.70527
C          3.88581        0.14548        2.34467
H          1.38032        0.69124        1.46674
H          1.26070       -1.66183       -2.01037
C          3.70719       -2.83228       -1.89344
C          1.49670        6.17075       -1.78992
C          2.23588        5.22795        0.43045
C          2.83708        4.08613       -1.71148
C         -4.38121        3.44253       -1.60550
C         -3.93998        4.63200        0.55136
C         -3.45234        5.73854       -1.66377
C         -0.98753        6.49232        0.71920
H          2.42379        6.72893       -1.91807
H          1.10300        5.93527       -2.77811
H          0.78428        6.82604       -1.29498
H          2.41882        4.32115        1.00596
H          3.16601        5.79395        0.38618
H          1.50726        5.82242        0.97559
H          2.47602        3.71339       -2.66967
H          3.70566        4.71568       -1.90348
H          3.18207        3.23890       -1.12043
H         -5.35561        3.90486       -1.76188
H         -3.98326        3.16256       -2.58055
H         -4.54842        2.53408       -1.02885
H         -3.95047        3.69260        1.10364
H         -3.30817        5.32773        1.09788
H         -4.95371        5.03158        0.54438
H         -2.86174        6.50634       -1.17073
H         -3.04850        5.59926       -2.66600
H         -4.47024        6.11616       -1.75753
H         -0.88072        5.64276        1.39499
H         -0.17469        7.19819        0.88907
H         -1.92801        7.00371        0.92317
C          4.70568       -3.23772        1.54235
C          3.48607        1.62461        2.55116
C          3.47484       -0.65507        3.58980
C          5.41511        0.11791        2.17196
C          3.31109       -4.26264       -1.49652
C          3.19747       -2.56254       -3.32751
C          5.24014       -2.69623       -1.92765
H          3.65399        2.19934        1.64089
H          2.43915        1.72637        2.83245
H          4.07644        2.07784        3.34708
H          3.95308       -0.25833        4.48487
H          2.39569       -0.61194        3.73605
H          3.75337       -1.70207        3.49505
H          5.78893       -0.89963        2.09461
H          5.70821        0.65020        1.26765
H          5.91352        0.58834        3.01918
H          3.65642       -4.50431       -0.49429
H          2.22806       -4.38065       -1.51198
H          3.73871       -4.99131       -2.18466
H          2.13843       -2.79522       -3.42971
H          3.34841       -1.51906       -3.60276
H          3.73099       -3.17986       -4.04993
H          5.68248       -2.95241       -0.96813
H          5.52931       -1.67334       -2.16649
H          5.67559       -3.35608       -2.67762
H          5.14265       -4.12428        1.08306
H          5.18862       -3.08106        2.50667
H          3.63734       -3.39570        1.69386
