72
-108.40178689
Cl         1.69410       -0.92812        2.64550
Cl        -0.99253        0.68565        2.81908
P         -1.10432        1.14756       -0.30710
P          2.26557       -0.10953       -0.33345
C          3.26246        1.47427       -0.01221
C          3.58564        1.56330        1.48048
C          4.54541        1.45417       -0.83531
C          3.33670       -1.67365       -0.14515
C          4.17221       -1.90435       -1.41095
C          1.47449       -0.32669       -2.03417
C          1.52349        0.90508       -2.91267
C         -1.11777       -0.20137       -1.51923
C          0.06863       -0.90458       -2.00117
C         -0.40699       -1.99008       -2.85936
C         -1.85588       -1.92684       -2.91574
C         -2.29621       -0.79287       -2.12429
C          2.42832        2.69392       -0.38350
H          2.67876        1.53928        2.08482
H          4.22998        0.75415        1.81323
H          5.08178        2.39888       -0.73206
H          4.33695        1.30712       -1.89440
C          4.27138       -1.59958        1.05855
H          4.67868       -0.99708       -1.73460
H          3.56789       -2.27005       -2.24027
H          2.10187       -1.08901       -2.50514
H          1.13597        0.68940       -3.91066
H          2.53724        1.28737       -3.03171
H          0.89984        1.69464       -2.49912
H          0.22787       -2.66711       -3.43384
H         -2.50184       -2.58331       -3.50323
Pd         0.47753        0.24703        1.16869
H         -3.32535       -0.47866       -1.93819
C          2.36268       -2.82795        0.03660
H          4.93672       -2.66172       -1.22978
H          3.73106       -1.35180        1.96983
H          4.75634       -2.56283        1.22335
H          5.06392       -0.86902        0.90797
H          2.88643       -3.78593        0.03022
H          1.84441       -2.74422        0.99045
H          1.62120       -2.84431       -0.76335
H          4.10369        2.49703        1.70529
H          5.21986        0.66488       -0.50797
H          2.26260        2.76835       -1.45518
H          1.46215        2.67230        0.11829
H          2.93164        3.61296       -0.07908
C         -2.74632        1.25834        0.42921
C         -3.14206        2.32452        1.19633
C         -4.45391        2.07057        1.59944
C         -4.80334        0.85834        1.05555
O         -3.76381        0.34951        0.33105
H         -2.53758        3.18468        1.43832
H         -5.07002        2.70100        2.21955
H         -5.75915        0.36327        1.17512
C         -0.79768        2.75805       -1.04820
C         -1.19795        3.07546       -2.32216
C         -0.81597        4.39851       -2.55056
C         -0.20368        4.83389       -1.40047
O         -0.18666        3.83558       -0.46819
H         -1.71374        2.41836       -3.00465
H         -0.97570        4.96849       -3.45121
H          0.21011        5.82166       -1.23949
Fe        -1.24941       -2.12516       -0.97538
C         -0.85238       -2.65689        0.97083
C         -0.82891       -3.82660        0.11311
C         -2.12659       -3.93285       -0.52813
C         -2.94990       -2.83221       -0.06003
C         -2.15551       -2.03902        0.85723
H         -0.05715       -2.31530        1.63558
H         -0.00318       -4.53362        0.00761
H         -2.43971       -4.72062       -1.21701
H         -3.98703       -2.63548       -0.34087
H         -2.48104       -1.13811        1.38056
