115
-277.94676745
P         -1.86452       -0.67981       -0.12312
P          1.76320        0.41476       -0.21826
C         -2.10015       -2.45087        0.07848
C         -1.02749       -3.27541        0.33907
H         -0.07675       -2.85876        0.62685
C         -1.15939       -4.63711        0.16189
H         -0.30768       -5.29343        0.25182
C         -2.35803       -5.16925       -0.28404
C         -3.46313       -4.34196       -0.41485
H         -4.38739       -4.75805       -0.78199
C         -3.33650       -2.98040       -0.22497
H         -4.16920       -2.32250       -0.42038
C         -3.29596        0.15380        0.60266
C         -3.95961       -0.37805        1.68455
H         -3.62003       -1.30492        2.11776
C         -5.04385        0.28318        2.22513
H         -5.56463       -0.10863        3.08468
C         -5.47535        1.47497        1.67799
C         -4.80658        2.00105        0.58971
H         -5.14779        2.93616        0.17418
C         -3.72059        1.34207        0.05389
H         -3.21030        1.75193       -0.80124
C         -1.67661       -0.18735       -1.87063
C         -1.15035        1.08722       -1.97281
H         -0.84121        1.59723       -1.07624
C         -0.85488        1.65551       -3.21045
C         -1.29749        0.99155       -4.34776
H         -1.11510        1.42622       -5.31630
C         -1.81288       -0.28578       -4.25569
H         -2.02623       -0.83377       -5.15788
C         -1.90069       -0.94532       -3.02934
C          1.51164       -0.13028       -1.94030
C          0.98463       -1.40807       -1.98390
H          0.71438       -1.89281       -1.06093
C          0.63779       -2.01083       -3.19175
C          1.03181       -1.37896       -4.36477
H          0.80888       -1.84029       -5.31226
C          1.54977       -0.09978       -4.33043
H          1.72499        0.42234       -5.25586
C          1.68761        0.59431       -3.12800
C         -1.87647       -2.45911       -3.06132
H         -2.52524       -2.81131       -3.87141
H         -2.34721       -2.85013       -2.16321
C         -0.43386       -3.06638       -3.22430
H         -0.22922       -3.81125       -2.44797
H         -0.35855       -3.62706       -4.16286
C          0.21286        2.70999       -3.31679
H          0.04086        3.47394       -2.55114
H          0.09576        3.24706       -4.26485
C          1.66178        2.10664       -3.20139
H          2.27316        2.43475       -4.04978
H          2.17273        2.52216       -2.33678
C          1.98208        2.19313       -0.06594
C          0.91266        3.01339        0.22123
C          3.20018        2.72790       -0.42856
C          1.02332        4.37219        0.00898
C          3.30563        4.08611       -0.65181
C          2.19798        4.90564       -0.49598
C          3.23049       -0.37988        0.47565
C          3.65770       -1.57663       -0.05290
C          3.92870        0.20358        1.50740
C          4.78449       -2.19259        0.45223
H          3.12200       -2.02165       -0.87427
C          5.05292       -0.41293        2.01523
H          3.59102        1.14032        1.92112
C          5.48508       -1.61740        1.49331
H          5.14599       -3.12111        0.03939
H          5.61276        0.03670        2.81992
Pd        -0.00854       -0.13083        1.21687
Cl        -1.37113       -0.97687        2.79817
Cl         1.37618        0.68742        2.78896
H          4.21126        4.50270       -1.06256
H          4.03236        2.07438       -0.64083
H          0.16940        5.02259        0.12042
H         -0.02041        2.59483        0.55965
C         -3.71600       -7.20960       -0.93619
C         -2.32158       -6.51919       -0.95520
C         -1.79622       -6.25591       -2.40247
F         -4.56790       -6.52635       -1.71297
F         -3.58758       -8.47093       -1.37643
F         -4.15545       -7.20445        0.33097
F         -1.45237       -7.32109       -0.33540
F         -1.84710       -7.38578       -3.12046
F         -2.53709       -5.29249       -2.96813
F         -0.53351       -5.82236       -2.29534
C         -6.07778        3.44490        3.07673
C         -6.63121        2.21456        2.30204
C         -7.66148        2.61751        1.20600
F         -5.26918        2.98133        4.04178
F         -5.37835        4.21926        2.23435
F         -7.09755        4.13038        3.61520
F         -7.26020        1.42828        3.17991
F         -7.11281        3.52542        0.38681
F         -7.96970        1.51005        0.51452
F         -8.75977        3.11637        1.79385
C          7.96425       -1.55323        1.32568
C          6.75190       -2.27101        1.98456
C          6.81532       -2.23874        3.54018
F          9.10537       -2.09850        1.77294
F          7.85705       -1.72266       -0.00086
F          7.91539       -0.24557        1.61998
F          6.78164       -3.55182        1.60592
F          7.85093       -2.98480        3.95486
F          6.95116       -0.97263        3.95857
F          5.66401       -2.74908        4.00242
C          3.50791        6.94740       -1.23770
C          2.12310        6.23902       -1.19678
C          1.55770        5.93519       -2.62068
F          3.98739        6.97721        0.01459
F          4.34387        6.25755       -2.02597
F          3.34851        8.19660       -1.70200
F          1.26282        7.04473       -0.56953
F          0.30402        5.49057       -2.46487
F          1.57387        7.04783       -3.36680
F          2.29215        4.96633       -3.18553
