115
-277.94258873
P         -1.96872       -0.55477       -0.06643
P          1.72129        0.57321       -0.20827
C         -1.99035       -2.34148        0.13717
C         -0.82713       -3.03828        0.38376
H          0.07288       -2.51547        0.66121
C         -0.80671       -4.40734        0.21407
H          0.11440       -4.96356        0.29553
C         -1.94626       -5.07492       -0.20331
C         -3.13872       -4.37812       -0.32051
H         -4.01719       -4.89927       -0.66520
C         -3.16329       -3.01006       -0.14099
H         -4.06952       -2.45270       -0.32170
C         -3.47009        0.13167        0.66305
C         -4.09628       -0.48279        1.72304
H         -3.68122       -1.38740        2.13793
C         -5.23630        0.07344        2.26759
H         -5.73242       -0.38304        3.10958
C         -5.75871        1.24041        1.74611
C         -5.12403        1.85002        0.68110
H         -5.53690        2.76517        0.28646
C         -3.98202        1.29717        0.14157
H         -3.49295        1.77169       -0.69282
C         -1.79781        0.00308       -1.79564
C         -1.30725        1.29521       -1.86800
H         -1.01286        1.79677       -0.96082
C         -1.03847        1.90194       -3.09448
C         -1.48486        1.25871       -4.24289
H         -1.32627        1.72286       -5.20192
C         -1.96940       -0.03234       -4.17950
H         -2.18454       -0.56008       -5.09322
C         -2.02052       -0.72765       -2.97135
C          1.40488        0.10802       -1.94408
C          0.91021       -1.17924       -2.02698
H          0.70021       -1.71709       -1.11870
C          0.53318       -1.73556       -3.24836
C          0.87611       -1.04570       -4.40494
H          0.63215       -1.47076       -5.36411
C          1.36919        0.24174       -4.33119
H          1.50495        0.80727       -5.23753
C          1.52850        0.88599       -3.10431
C         -1.96575       -2.23917       -3.04334
H         -2.64593       -2.58494       -3.82988
H         -2.38166       -2.65806       -2.13084
C         -0.51952       -2.80992       -3.28992
H         -0.27018       -3.58537       -2.55763
H         -0.47002       -3.32355       -4.25659
C          0.01195        2.97627       -3.19603
H         -0.15786        3.72968       -2.41959
H         -0.12454        3.52217       -4.13638
C          1.47202        2.39803       -3.10841
H          2.08062        2.78250       -3.93509
H          1.97193        2.78321       -2.22337
C          2.13906        2.31526       -0.06439
C          1.15624        3.24084        0.21276
C          3.39335        2.72105       -0.47011
C          1.39050        4.57686       -0.03905
C          3.61990        4.05695       -0.73897
C          2.59656        4.98185       -0.58786
C          3.13661       -0.36588        0.40345
C          3.89197       -1.08593       -0.49393
C          3.48581       -0.34326        1.73262
C          4.99319       -1.79402       -0.05686
H          3.62338       -1.08938       -1.53769
C          4.58425       -1.04959        2.17122
H          2.89910        0.23246        2.42942
C          5.34062       -1.78567        1.27930
H          5.60374       -2.35763       -0.74436
H          4.87321       -1.03403        3.21039
Pd        -0.13477        0.20679        1.17670
Cl        -1.46927       -0.38547        2.89644
Cl         1.17328        1.29095        2.66765
H          4.55093        4.37372       -1.18094
H          4.15424        1.98490       -0.67830
H          0.60221        5.30665        0.06409
H          0.18791        2.91896        0.55859
C         -3.09078       -7.26289       -0.77840
C         -1.78004       -6.42681       -0.85006
C         -1.32599       -6.14145       -2.31666
F         -4.02839       -6.69762       -1.55133
F         -2.83614       -8.51503       -1.18899
F         -3.50057       -7.26919        0.49865
F         -0.81335       -7.11685       -0.24006
F         -1.29257       -7.28332       -3.01668
F         -2.17041       -5.26082       -2.87206
F         -0.10728       -5.58980       -2.25642
C         -6.56377        3.13754        3.14729
C         -6.98533        1.86004        2.36584
C         -8.04268        2.16099        1.26289
F         -5.71291        2.75619        4.11202
F         -5.94803        3.98505        2.31012
F         -7.65021        3.71036        3.68702
F         -7.53889        1.01235        3.23732
F         -7.57651        3.11342        0.44316
F         -8.24160        1.02714        0.57411
F         -9.18629        2.55673        1.84260
C          7.72264       -1.50408        1.94291
C          6.57131       -2.52839        1.73348
C          6.26087       -3.34725        3.02118
F          8.82045       -2.14595        2.37017
F          7.95802       -0.91859        0.75889
F          7.33532       -0.58088        2.83539
F          6.95988       -3.39077        0.79006
F          7.30507       -4.14223        3.30134
F          6.02130       -2.50924        4.03942
F          5.16886       -4.08677        2.77566
C          4.05711        6.85410       -1.48487
C          2.61428        6.29045       -1.33886
C          1.93790        5.99676       -2.71656
F          4.60419        6.89523       -0.26094
F          4.77843        6.04770       -2.27570
F          3.99532        8.08957       -2.00565
F          1.87584        7.20055       -0.69927
F          0.66486        5.65748       -2.47315
F          1.99373        7.08635       -3.49396
F          2.55848        4.96039       -3.29696
