171
-217.84271204
P         -1.58369        0.30287       -0.49782
P          1.63511       -0.35616       -0.21797
C         -0.81157        1.27282       -1.79040
C          1.07337       -1.35652       -1.59914
C          0.06656        0.66750       -2.68116
C          0.70334        1.46809       -3.64859
C          0.40821        2.82026       -3.71056
C         -0.48921        3.39369       -2.83472
C         -1.09277        2.61447       -1.86743
C          1.35229       -2.70171       -1.57230
C          0.87432       -3.53202       -2.56629
C          0.09502       -3.00636       -3.57426
C         -0.20050       -1.65399       -3.61829
C          0.31927       -0.79979       -2.62639
Cl         1.36879        0.27636        2.94180
Cl        -1.80775       -0.47354        2.72989
C         -1.06975       -1.13992       -4.71119
C          1.66070        0.87772       -4.62296
H         -0.71790        4.44470       -2.90313
H         -1.79145        3.05265       -1.17301
H          1.94630       -3.10696       -0.76933
H          1.09990       -4.58577       -2.54627
H          0.88862        3.42603       -4.46029
H         -0.29863       -3.65111       -4.34197
C         -3.83738       -3.26306       -2.12504
C         -2.83459       -3.47611       -1.18700
C         -2.15123       -2.36829       -0.70082
C         -2.45222       -1.11243       -1.16447
C         -3.43395       -0.91925       -2.10545
C         -4.16387       -1.99592       -2.59407
H         -4.38335       -4.11363       -2.48712
H         -1.37928       -2.47274        0.04203
H         -3.64039        0.08137       -2.44793
C         -4.40457        2.72098        2.12157
C         -3.05832        3.06480        2.08813
C         -2.22469        2.34782        1.24010
C         -2.71738        1.31846        0.47561
C         -4.04954        0.99014        0.52755
C         -4.92234        1.68347        1.35539
H         -5.06318        3.26581        2.76982
H         -1.17226        2.57282        1.20185
H         -4.40930        0.17097       -0.06926
C          4.29714       -2.69405        2.62485
C          2.97027       -3.07972        2.48198
C          2.17994       -2.37365        1.58341
C          2.70382       -1.32675        0.86483
C          4.01841       -0.96236        1.01968
C          4.84384       -1.63603        1.90945
H          4.91041       -3.22608        3.32739
H          1.13880       -2.61674        1.45851
H          4.40105       -0.13206        0.45332
C          3.87538        3.43684       -1.25035
C          2.77842        3.51173       -0.40024
C          2.07964        2.34059       -0.13841
C          2.47478        1.15198       -0.69993
C          3.56176        1.09432       -1.53805
C          4.29578        2.24031       -1.82027
H          4.42314        4.33359       -1.46565
H          1.22593        2.34956        0.51708
H          3.85055        0.14395       -1.95539
Pd        -0.12940       -0.06154        1.29964
C         -1.34557       -4.92201        0.27901
C         -2.53677       -4.89943       -0.69693
C         -2.19548       -5.79722       -1.90077
C         -3.77571       -5.45238        0.03005
H         -1.12915       -5.94011        0.60233
H         -0.44715       -4.52562       -0.19302
H         -1.55894       -4.33137        1.16967
H         -1.94619       -6.80710       -1.57555
H         -3.03238       -5.86894       -2.59416
H         -1.34181       -5.39892       -2.44770
H         -4.63683       -5.49770       -0.63577
H         -3.59071       -6.45811        0.40698
H         -4.03995       -4.81758        0.87567
C         -6.07022       -3.05281       -3.91294
C         -5.31470       -1.75094       -3.58275
C         -4.75881       -1.16391       -4.89192
C         -6.31276       -0.75749       -2.95923
H         -5.41210       -3.77949       -4.38893
H         -6.48930       -3.50159       -3.01247
H         -6.89438       -2.85781       -4.59907
H         -4.20381       -0.24447       -4.70864
H         -4.09100       -1.87294       -5.37944
H         -5.56524       -0.93412       -5.58817
H         -6.68295       -1.13145       -2.00479
H         -5.84627        0.21118       -2.78579
H         -7.16884       -0.59973       -3.61501
C         -1.80758        5.23780        2.11571
C         -2.45644        4.15145        2.99038
C         -1.39121        3.51066        3.90124
C         -3.52455        4.81510        3.88051
H         -2.54256        5.68631        1.44761
H         -1.37795        6.02993        2.72872
H         -1.01066        4.82075        1.50417
H         -0.58999        3.05788        3.31898
H         -0.94480        4.25211        4.56338
H         -1.83339        2.72791        4.51708
H         -4.29602        5.29355        3.27745
H         -3.99901        4.08423        4.53507
H         -3.07774        5.58211        4.51300
C         -7.05848        1.67560        0.05487
C         -6.40599        1.28855        1.39262
C         -7.15731        2.00047        2.53449
C         -6.53100       -0.23272        1.61088
H         -6.56237        1.17959       -0.77751
H         -8.11137        1.39476        0.03614
H         -6.99093        2.75071       -0.11051
H         -8.19600        1.67284        2.57684
H         -6.70015        1.78037        3.49908
H         -7.16199        3.08071        2.39134
H         -6.01787       -0.53284        2.52426
H         -7.57617       -0.52917        1.69744
H         -6.09837       -0.79404        0.78390
C          2.45761       -3.77677        4.82945
C          2.40562       -4.21021        3.35342
C          3.24439       -5.48598        3.15204
C          0.94366       -4.52983        2.98908
H          2.04540       -4.54894        5.47869
H          3.48115       -3.58225        5.14777
H          1.88172       -2.86384        4.98063
H          2.84316       -6.31227        3.73866
H          3.24358       -5.78488        2.10393
H          4.27912       -5.33534        3.45693
H          0.56015       -5.34565        3.60159
H          0.29901       -3.66616        3.15148
H          0.86475       -4.83324        1.94597
C          6.99524       -1.91624        3.24201
C          6.30808       -1.20030        2.06301
C          6.37027        0.31861        2.31998
C          7.06735       -1.53947        0.76902
H          8.01957       -1.56424        3.36389
H          6.46588       -1.72686        4.17571
H          7.03723       -2.99298        3.07962
H          7.39771        0.64487        2.48021
H          5.97311        0.88469        1.47861
H          5.79023        0.58230        3.20409
H          8.10935       -1.22634        0.83209
H          7.04646       -2.61257        0.57979
H          6.61725       -1.04242       -0.08863
C          1.01212        5.27680       -0.43819
C          2.31848        4.83085        0.23710
C          3.36942        5.94514        0.06571
C          2.08282        4.62441        1.74675
H          0.63205        6.19577        0.00762
H          1.17235        5.45727       -1.50084
H          0.24576        4.50919       -0.34352
H          3.05271        6.85592        0.57387
H          4.32857        5.64524        0.48765
H          3.51534        6.19320       -0.98529
H          1.79155        5.55817        2.22740
H          1.29368        3.89866        1.93418
H          2.98962        4.26357        2.23156
C          5.15849        1.71704       -4.12040
C          5.55416        2.14533       -2.69777
C          6.51605        1.10386       -2.09602
C          6.29553        3.49399       -2.78227
H          4.65298        0.75217       -4.11423
H          4.48963        2.45085       -4.56882
H          6.03686        1.62925       -4.75966
H          7.43872        1.04492       -2.67310
H          6.77576        1.36709       -1.07088
H          6.06763        0.11145       -2.08789
H          6.59607        3.83844       -1.79284
H          7.19729        3.40177       -3.38755
H          5.66988        4.25907       -3.24151
H         -1.45549       -0.14549       -4.48280
H          1.14410        0.53793       -5.52111
H         -1.92454       -1.80004       -4.85909
H         -0.52412       -1.08634       -5.65411
H          2.18731        0.02515       -4.19164
H          2.40665        1.61072       -4.93021
