105
-153.07234660
Cl        -0.75293        2.10400       -2.86674
Pd         0.08968        1.50243       -0.87031
P          1.34893        0.70618        0.91804
N          0.71359       -0.58354        1.92772
C          0.06243       -1.78349        1.67925
C         -0.10668       -2.33950        0.38718
C         -0.88218       -3.50707        0.23049
C         -1.04978       -4.08209       -1.15678
C         -1.64141       -5.49997       -1.19655
C         -2.79788       -5.64305       -0.20294
C         -2.32002       -5.35603        1.22835
C         -1.46252       -4.12121        1.34232
C         -1.23600       -3.59014        2.60507
C         -0.49014       -2.45233        2.77111
H         -0.35217       -2.03827        3.75482
H         -1.67252       -4.07639        3.46107
H         -3.17995       -5.25359        1.90275
H         -3.59433       -4.93739       -0.47032
H         -1.96900       -5.75777       -2.21359
H         -1.68539       -3.40159       -1.73541
C          0.68037       -1.86412       -0.77620
C          0.02732       -1.25359       -1.88094
C          0.76188       -1.03447       -3.04967
C          2.07557       -1.41505       -3.14133
C          2.71536       -2.05314       -2.08594
C          4.12607       -2.54264       -2.28117
C          4.45128       -3.75805       -1.40222
C          4.10909       -3.46154        0.06083
C          2.62834       -3.07722        0.23578
C          2.02018       -2.27926       -0.89683
H          2.03158       -3.98806        0.36570
H          4.74429       -2.64180        0.41444
H          5.50568       -4.05042       -1.50870
H          4.82006       -1.72556       -2.05635
H          2.62280       -1.23629       -4.05133
H          0.28178       -0.54490       -3.87865
N         -1.31413       -0.85223       -1.83545
P         -1.84749        0.18207       -0.50723
C         -2.78059       -0.70881        0.73434
C         -3.60169       -1.72926        0.31916
C         -4.38276       -2.40107        1.24252
C         -4.35283       -2.04332        2.58361
C         -3.52504       -1.00091        2.97942
C         -2.74723       -0.32829        2.05461
H         -2.10401        0.47910        2.36107
H         -3.48771       -0.72387        4.01911
C         -5.15529       -2.79580        3.58675
H         -5.01722       -3.21132        0.92662
H         -3.62221       -1.99799       -0.72524
C         -2.97150        1.45379       -1.09829
C         -2.97249        2.69461       -0.50585
C         -3.84148        3.67028       -0.95867
C         -4.72335        3.40439       -1.99742
C         -4.70867        2.14390       -2.57937
C         -3.83773        1.16937       -2.12624
H         -3.83334        0.18678       -2.56996
H         -5.38135        1.93112       -3.39259
C         -5.63697        4.46447       -2.50625
H         -3.83600        4.64858       -0.50919
H         -2.28916        2.90008        0.30258
H         -1.64466       -0.38615       -2.67064
H          0.92785       -0.35198        2.89022
C          1.30066        2.18189        1.94355
C          2.45131        2.83446        2.31704
C          2.37285        3.97973        3.08765
C          1.14072        4.48370        3.48214
C         -0.00996        3.80721        3.10030
C          0.07203        2.66148        2.33000
H         -0.81889        2.14260        2.01748
H         -0.97066        4.18432        3.40686
C          1.05832        5.70562        4.32933
H          3.27128        4.49311        3.38502
H          3.40686        2.45268        1.99773
C          3.07071        0.40089        0.52351
C          3.60747        0.78074       -0.68348
C          4.95351        0.58675       -0.93030
C          5.77270        0.01301        0.03235
C          5.21932       -0.33776        1.25618
C          3.87016       -0.14833        1.49797
H          3.43597       -0.41983        2.44733
H          5.85027       -0.76367        2.01755
C          7.22479       -0.18707       -0.22818
H          5.37756        0.88685       -1.87332
H          2.97709        1.24780       -1.42164
Cl         1.62136        3.15230       -0.94984
H         -1.75028       -6.21294        1.60710
H         -0.85874       -6.22750       -0.94726
H         -3.25235       -6.64152       -0.27266
H         -0.07629       -4.07086       -1.66295
H          4.36416       -4.31961        0.69845
H          2.49597       -2.51218        1.16630
H          4.28519       -2.78149       -3.34045
H          3.86718       -4.62151       -1.74480
H         -6.05511       -3.21698        3.13622
H         -4.57442       -3.61705        4.00891
H         -5.46774       -2.14783        4.40684
H         -5.15592        5.04241       -3.29646
H         -6.55246        4.03345       -2.91385
H         -5.92186        5.15410       -1.71044
H          1.86340        6.40270        4.09266
H          0.11324        6.22852        4.17625
H          1.13409        5.44971        5.38703
H          7.60236       -1.06228        0.30253
H          7.41705       -0.33741       -1.29148
H          7.80010        0.68003        0.09890
