72
-98.10260324
Fe         0.00969        2.83983       -0.01301
P          1.81010       -0.00228       -0.05293
P         -1.82280       -0.02558        0.06373
C          1.38937        1.61659        0.70067
C          0.38786        1.83532        1.72892
C          0.31930        3.26134        1.99026
C          1.30497        3.91833        1.15081
C          1.99879        2.89957        0.38081
C         -1.42506        1.59180       -0.70087
C         -2.02846        2.87482       -0.37753
C         -1.37402        3.89717       -1.17494
C         -0.37165        3.24745       -1.99861
C         -0.41239        1.82411       -1.71437
C          3.13669       -0.78367        0.98805
C          4.34921        0.07805        0.59768
C          2.89819        0.32985       -1.52849
C          4.30739        0.48495       -0.90458
C         -3.16261       -0.81434       -0.95391
C         -4.38102        0.01769       -0.51903
C         -2.87637        0.28447        1.56772
C         -4.30347        0.42110        0.98263
H         -0.22124        1.06334        2.19512
H         -0.34660        3.75087        2.70441
H          1.51778        4.98978        1.13219
H          2.79931        3.06936       -0.34211
H         -2.82953        3.03872        0.34555
H          0.20729        1.05688       -2.17591
Cl         1.55825       -3.04830       -0.50475
Cl        -1.49874       -3.07848        0.52173
Pd        -0.00008       -1.49337       -0.03362
H          3.27698       -1.80796        0.62321
C          2.82383       -0.79791        2.48710
H          2.55663        1.26993       -1.97786
C          2.84867       -0.79297       -2.56296
H          5.28788       -0.44325        0.84241
H          4.34353        0.98043        1.22676
H          4.67586        1.51338       -1.03347
H          5.01185       -0.14118       -1.46961
H         -1.60343        4.96471       -1.16418
H          0.28421        3.73843       -2.72121
H          3.76500       -0.73094        3.05050
H          3.68830       -0.67297       -3.26185
H         -3.27186       -1.84793       -0.60496
C         -2.89495       -0.79193       -2.46114
H         -2.53782        1.22728        2.01357
C         -2.78371       -0.84445        2.59277
H         -5.31481       -0.52403       -0.73653
H         -4.41666        0.92231       -1.14389
H         -4.68222        1.44415        1.12438
H         -4.98375       -0.21576        1.56511
H         -3.85579       -0.76841       -2.99406
H         -2.97275       -1.79543        2.07811
C          2.05869       -2.03820        2.92563
H          2.65460       -2.94062        2.77631
H          1.78018       -1.99922        3.98109
H          1.14570       -2.17139        2.34698
C          1.54819       -0.86131       -3.34390
H          1.37448        0.05649       -3.90885
H          1.54087       -1.68998       -4.05566
H          0.69908       -1.00042       -2.67714
C         -2.07847       -1.98108       -2.94436
H         -1.85100       -1.91857       -4.01089
H         -1.13334       -2.06144       -2.41004
H         -2.61186       -2.91864       -2.77639
C         -1.46129       -0.90267        3.33669
H         -1.41961       -1.74360        4.03272
H         -0.62876       -1.01409        2.64412
H         -1.28860        0.00764        3.91391
H          2.27102        0.11436        2.74491
H          3.03560       -1.74545       -2.05040
H         -2.40068        0.15275       -2.72140
H         -3.60506       -0.74062        3.31555
