58
-89.86712693
P          1.87091       -0.23515        0.50571
C          1.57309        1.52924        0.72738
C          1.30066        2.26865       -0.40163
C          1.01919        3.61799       -0.29655
C          1.01810        4.22194        0.94436
C          1.30357        3.48130        2.07410
C          1.58364        2.13162        1.96456
H          1.81892        1.55475        2.84285
H          1.30207        1.77775       -1.36262
C          3.40712       -0.51725       -0.37702
C          4.27875        0.52384       -0.60116
C          5.45708        0.29772       -1.28940
C          5.75227       -0.97075       -1.74883
C          4.87369       -2.01195       -1.52236
C          3.69605       -1.78284       -0.83291
H          2.99425       -2.58325       -0.65773
H          4.03200        1.50940       -0.24083
C          1.90076       -1.18763        2.08396
C          0.53919       -1.68555        2.54306
C         -0.51499       -0.59124        2.64972
P         -1.36632       -0.31668        1.03823
C         -1.93207        1.37924        0.84077
C         -1.98216        2.25330        1.90302
C         -2.41010        3.55306        1.70138
C         -2.78951        3.96695        0.43957
C         -2.75009        3.08329       -0.62056
C         -2.32283        1.78490       -0.41486
H         -2.29334        1.07452       -1.22588
H         -1.68820        1.92106        2.88496
C         -2.74953       -1.45866        0.94526
C         -2.53708       -2.78839        0.66240
C         -3.61186       -3.65670        0.59516
C         -4.89181       -3.18670        0.81389
C         -5.10029       -1.85162        1.09827
C         -4.02349       -0.98562        1.16395
H         -4.17005        0.06051        1.38067
H         -1.53526       -3.14064        0.47678
Pd         0.00432       -0.61616       -0.81768
Cl         1.31344       -0.57598       -2.63752
Cl        -1.84730       -1.17169       -1.96410
H         -1.30191       -0.85042        3.36277
H         -0.07267        0.34415        2.99158
H          0.17830       -2.45928        1.85166
H          0.65019       -2.19688        3.51221
H          2.59086       -2.02187        1.93518
H          2.35749       -0.54508        2.83812
H          0.79504        4.19280       -1.17997
H          1.30525        3.95422        3.04245
H          6.14091        1.11097       -1.46903
H          5.10138       -3.00060       -1.88564
H         -2.44362        4.24285        2.52864
H         -3.05039        3.40272       -1.60487
H         -3.44971       -4.69736        0.36709
H         -6.09911       -1.48350        1.26594
H          0.79326        5.27242        1.03146
H          6.66863       -1.14788       -2.28794
H         -3.11951        4.98090        0.28259
H         -5.72975       -3.86242        0.75925
