111
-148.56003469
P         -2.48455       -2.28425       -0.46912
P         -0.00543       -0.29747       -0.48818
C         -1.58598       -1.98164       -2.01077
C         -0.51385       -1.11646       -2.01337
C         -2.94802       -4.06305       -0.26859
C         -2.09034       -4.72853        0.78578
C         -1.98119       -2.59495       -3.18212
H         -2.83051       -3.25858       -3.17553
C         -1.29222       -2.34449       -4.35634
H         -1.59872       -2.82365       -5.27181
C         -0.21530       -1.47882       -4.35662
H          0.32077       -1.28294       -5.27065
C          0.17292       -0.86012       -3.18169
H          1.00964       -0.17941       -3.16616
Pd        -1.23136       -1.31931        1.19766
Cl        -2.74674       -1.95537        2.72159
Cl         0.13812       -0.34282        2.68534
C         -4.44678       -3.98901        0.07994
C         -4.15962       -1.50022       -0.45487
H         -2.36624       -5.77685        0.92217
H         -1.03109       -4.68728        0.52030
H         -2.20576       -4.22900        1.74938
H         -4.55359       -3.98530        1.17353
H         -4.96619       -4.89626       -0.26439
H         -4.24589       -0.98553        0.51129
C         -5.11083       -2.71063       -0.50672
C         -4.31726       -0.52627       -1.60326
H         -2.80283       -4.53941       -1.24654
H         -5.39477       -2.89301       -1.55228
H         -6.05078       -2.48079        0.01773
H         -4.20748       -1.03724       -2.56147
H         -5.30102       -0.05116       -1.59289
H         -3.55809        0.25856       -1.56588
C         -1.15107        4.11211       -0.48484
C         -0.05118        3.66926       -1.26353
C          0.28012        2.32438       -1.22617
C         -0.48304        1.42825       -0.52378
C         -1.61895        1.83395        0.12778
C         -1.99813        3.16535        0.14494
O         -1.38081        5.50225       -0.30544
C          0.79084        4.62588       -2.12301
H          1.15253        1.95787       -1.73931
H         -2.20344        1.09657        0.64811
C         -3.28101        3.56663        0.89014
C          4.41916       -0.88000        0.42590
C          3.73851        0.26110        0.92132
C          2.39364        0.40252        0.62290
C          1.74623       -0.49940       -0.17941
C          2.42279       -1.55192       -0.73894
C          3.77261       -1.74462       -0.49436
O          5.73048       -1.18012        0.88144
C          4.41475        1.31082        1.81638
H          1.81904        1.21127        1.04069
H          1.87529       -2.23144       -1.36872
C          4.50376       -2.89466       -1.20491
C         -0.06553        5.78670       -2.66125
C          1.95759        5.17288       -1.28742
C          1.36920        3.88708       -3.35135
C         -4.32386        2.42694        0.84320
C         -2.93978        3.85490        2.36006
C         -3.93830        4.79957        0.24390
C         -0.69206        6.06396        0.80487
H          0.51503        6.42741       -3.32452
H         -0.92023        5.40614       -3.21948
H         -0.44473        6.40789       -1.85369
H          1.59999        5.70976       -0.41222
H          2.59498        4.36063       -0.94092
H          2.57156        5.85585       -1.87397
H          2.11558        3.14829       -3.06324
H          0.57981        3.37993       -3.90557
H          1.85753        4.58698       -4.02909
H         -5.27169        2.75281        1.27090
H         -4.51137        2.11691       -0.18396
H         -3.99992        1.55779        1.41353
H         -3.83135        4.13400        2.92089
H         -2.50462        2.97484        2.83320
H         -2.22038        4.66568        2.44610
H         -4.88100        5.04284        0.73340
H         -3.29694        5.67443        0.31380
H         -4.14083        4.61742       -0.81099
H         -0.04416        6.87092        0.46297
H         -1.41157        6.48109        1.50917
H         -0.09279        5.30257        1.30587
C          5.76432       -2.01135        2.03497
C          5.90962        1.45510        1.47844
C          3.77220        2.70061        1.60581
C          4.23839        0.90566        3.28774
C          5.98265       -2.54428       -1.45082
C          4.39597       -4.16971       -0.35512
C          3.87104       -3.16848       -2.58874
H          6.45319        0.53532        1.67835
H          6.04278        1.69927        0.42505
H          6.37066        2.24504        2.07084
H          4.32544        3.46888        2.14548
H          3.77293        2.96737        0.54981
H          2.74585        2.73253        1.96821
H          3.18117        0.83127        3.54160
H          4.69384       -0.06147        3.48713
H          4.69560        1.63776        3.95277
H          6.52080       -2.41460       -0.51519
H          6.48401       -3.33209       -2.01250
H          6.06828       -1.61711       -2.01652
H          4.85370       -4.03259        0.62159
H          3.35222       -4.44022       -0.19696
H          4.89180       -5.00783       -0.84417
H          2.86696       -3.58044       -2.49968
H          4.46404       -3.89094       -3.14912
H          3.81527       -2.25307       -3.17733
H          6.33359       -2.91501        1.81769
H          6.25874       -1.48561        2.85160
H          4.75205       -2.28221        2.33784
