115
-277.94066979
P         -1.61657       -0.69086       -0.21336
P          2.03707        0.34915       -0.03987
C         -2.24186       -2.36609       -0.02675
C         -1.37790       -3.38273        0.31815
H         -0.38897       -3.15485        0.68071
C         -1.75347       -4.69408        0.11372
H         -1.05552       -5.50157        0.27299
C         -2.97969       -4.98586       -0.46104
C         -3.88721       -3.95999       -0.68516
H         -4.83375       -4.19024       -1.14723
C         -3.52069       -2.64681       -0.46056
H         -4.18711       -1.84015       -0.72369
C         -2.91006        0.42182        0.37618
C         -3.29263        0.40982        1.69622
H         -2.80864       -0.26109        2.38630
C         -4.29295        1.24991        2.13372
H         -4.60843        1.24498        3.16536
C         -4.91545        2.11063        1.25007
C         -4.53361        2.11191       -0.07681
H         -5.03865        2.77851       -0.75797
C         -3.53163        1.26886       -0.51297
H         -3.23855        1.26663       -1.54982
C         -1.27413       -0.35716       -1.97955
C         -0.71559        0.89444       -2.14723
H         -0.49272        1.48565       -1.27861
C         -0.27982        1.34275       -3.39267
C         -0.62852        0.58819       -4.50574
H         -0.34062        0.92915       -5.48613
C         -1.18896       -0.66387       -4.35111
H         -1.33426       -1.28590       -5.21813
C         -1.40968       -1.20874       -3.08560
C          1.90193       -0.37974       -1.71104
C          1.36099       -1.65358       -1.68541
H          1.02602       -2.06404       -0.74763
C          1.09343       -2.35404       -2.86192
C          1.59955       -1.83735       -4.04845
H          1.44130       -2.37617       -4.96771
C          2.14756       -0.57119       -4.08236
H          2.41614       -0.13812       -5.03096
C          2.19940        0.22515       -2.93866
C         -1.43739       -2.71825       -2.98793
H         -1.98777       -3.12329       -3.84539
H         -2.04408       -3.02042       -2.13794
C         -0.01123       -3.37727       -2.90268
H          0.06348       -4.03121       -2.02790
H          0.15016       -4.04806       -3.75419
C          0.83468        2.35228       -3.47384
H          0.61014        3.19026       -2.80548
H          0.83993        2.79890       -4.47440
C          2.23956        1.72284       -3.13985
H          2.95570        1.95453       -3.93617
H          2.66504        2.18579       -2.25259
C          1.82550        2.13955        0.07207
C          0.58508        2.69008        0.31835
C          2.89483        2.95059       -0.24051
C          0.38074        4.03704        0.10626
C          2.68756        4.29616       -0.46422
C          1.41637        4.83505       -0.34804
C          3.58733       -0.15795        0.72643
C          4.12230       -1.37063        0.35870
C          4.22775        0.62696        1.65748
C          5.30620       -1.79892        0.92111
H          3.61789       -1.97770       -0.37536
C          5.41289        0.19799        2.22067
H          3.79198        1.56658        1.95644
C          5.95723       -1.01812        1.85682
H          5.74601       -2.74094        0.63463
H          5.93537        0.80014        2.94729
Pd         0.22033       -0.43565        1.23122
Cl        -1.18347       -1.52191        2.62130
Cl         1.67492        0.03602        2.88278
H          3.48709        4.91841       -0.83245
H          3.87050        2.51725       -0.39737
H         -0.60424        4.47020        0.18909
H         -0.24007        2.06838        0.62267
C         -4.60794       -6.72386       -1.33921
C         -3.11729       -6.31683       -1.15848
C         -2.36223       -6.16323       -2.51814
F         -4.66629       -7.97843       -1.81252
F         -5.19720       -6.65580       -0.13624
F         -5.20804       -5.87529       -2.18523
F         -2.50897       -7.27298       -0.45248
F         -1.07091       -5.94087       -2.23704
F         -2.49935       -7.28060       -3.24432
F         -2.85125       -5.10159       -3.17337
C         -7.31971        2.14265        1.89602
C         -6.03976        3.00545        1.70537
C         -5.63018        3.75879        3.00515
F         -7.62205        1.60534        0.70436
F         -7.06736        1.16728        2.78129
F         -8.32493        2.92198        2.32267
F         -6.30279        3.92350        0.77122
F         -4.44540        4.34482        2.77539
F         -6.55830        4.68534        3.28981
F         -5.51463        2.88345        4.01360
C          7.21947       -2.93146        2.89349
C          7.28547       -1.44693        2.42682
C          8.38451       -1.21303        1.35087
F          8.34617       -3.23642        3.55557
F          6.15882       -3.05408        3.70564
F          7.06949       -3.73114        1.82839
F          7.59107       -0.70047        3.49165
F          8.41031        0.10133        1.08327
F          9.57211       -1.61315        1.82934
F          8.06695       -1.89409        0.24008
C          2.24999        7.14960       -0.96028
C          1.06672        6.14010       -1.01705
C          0.65648        5.77207       -2.47729
F          1.82968        8.34439       -1.40433
F          2.64365        7.24366        0.31847
F          3.26366        6.70022       -1.71306
F          0.01373        6.70092       -0.41743
F         -0.44939        5.01850       -2.40494
F          0.42241        6.88725       -3.18205
F          1.63565        5.04669       -3.03427
