59
-75.80904479
Cl         1.68076        0.56071        2.25867
P          1.59464       -0.11844       -0.87364
P         -1.61499       -0.08547       -0.79669
C          0.57790        0.13304       -2.39505
H          0.33644        1.19414       -2.49258
H          1.17442       -0.14894       -3.26845
C         -0.67290       -0.68656       -2.26466
H         -0.43037       -1.74167       -2.11199
H         -1.31454       -0.61668       -3.14859
C          2.63528       -1.63672       -1.13925
H          2.51050       -1.85758       -2.20811
C          2.94829        1.13645       -0.68460
H          3.01825        1.34414        0.38993
C         -3.03254       -1.19927       -0.37305
H         -3.22782       -1.01453        0.69101
C         -2.62742        1.38688       -1.29308
H         -2.05319        1.96459       -2.02771
C          4.07209       -1.14481       -0.89284
H          4.35816       -1.35544        0.14471
H          4.78272       -1.71248       -1.51247
C          4.20114        0.37885       -1.15608
H          4.33821        0.55610       -2.23172
H          5.10118        0.78797       -0.67222
C         -4.19366       -0.65700       -1.23664
H         -4.46378       -1.41091       -1.98942
H         -5.09349       -0.54079       -0.61465
C         -3.84862        0.69509       -1.93541
H         -4.71526        1.37274       -1.91591
H         -3.64426        0.51522       -3.00216
C          2.20971       -2.85340       -0.31755
H          2.80985       -3.71932       -0.62999
H          1.17778       -3.11213       -0.58753
C          2.68085        2.43152       -1.44163
H          3.59384        3.04321       -1.43952
H          2.49636        2.19518       -2.49753
C         -2.72106       -2.67483       -0.58745
H         -3.64832       -3.25665       -0.49010
H         -2.39665       -2.82357       -1.62528
C         -3.00797        2.26342       -0.10066
H         -3.84568        2.91308       -0.39055
H         -3.40638        1.61857        0.69366
C          2.31944       -2.68436        1.19090
H          1.91067       -3.54396        1.72730
H          1.78064       -1.80341        1.53614
H          3.35489       -2.57121        1.51449
C          1.52313        3.22647       -0.86043
H          0.60302        2.64237       -0.86690
H          1.33338        4.14637       -1.41811
H          1.71648        3.50357        0.17767
C         -1.67570       -3.20107        0.38296
H         -1.43015       -4.24918        0.19757
H         -2.01978       -3.12022        1.41585
H         -0.75165       -2.62763        0.31349
C         -1.86872        3.11607        0.43449
H         -1.47133        3.77489       -0.33970
H         -2.18785        3.74626        1.26773
H         -1.04470        2.50234        0.79670
Cl        -1.54064        0.19528        2.43474
Pd         0.02060        0.06213        0.83052
