105
-153.07252800
Cl        -0.77634        2.08717       -2.83814
Pd         0.09289        1.48901       -0.85068
P          1.36681        0.70529        0.93260
N          0.73114       -0.59720        1.92631
C          0.06872       -1.78957        1.66868
C         -0.10997       -2.33373        0.37240
C         -0.89548       -3.49404        0.20980
C         -1.07389       -4.05693       -1.18120
C         -1.68178       -5.46767       -1.23083
C         -2.83355       -5.60765       -0.23134
C         -2.34263       -5.34023        1.19919
C         -1.47545       -4.11287        1.31928
C         -1.23959       -3.59395        2.58529
C         -0.48442       -2.46327        2.75728
H         -0.33917       -2.05844        3.74378
H         -1.67699       -4.08333        3.43908
H         -3.19634       -5.23928        1.88165
H         -3.62361       -4.89022       -0.48616
H         -2.01863       -5.71189       -2.24819
H         -1.70380       -3.36494       -1.75238
C          0.67954       -1.85761       -0.78896
C          0.02940       -1.25075       -1.89790
C          0.77024       -1.02662       -3.06181
C          2.08633       -1.40033       -3.14596
C          2.72247       -2.03724       -2.08775
C          4.13504       -2.52373       -2.27614
C          4.45289       -3.74624       -1.40455
C          4.10541       -3.45829        0.05894
C          2.62579       -3.06758        0.23075
C          2.02160       -2.26763       -0.90283
H          2.02518       -3.97601        0.35995
H          4.74345       -2.64453        0.42112
H          5.50678       -4.04124       -1.50876
H          4.82659       -1.70830       -2.03841
H          2.63800       -1.21823       -4.05262
H          0.29254       -0.53938       -3.89357
N         -1.31598       -0.85998       -1.86369
P         -1.86433        0.18475       -0.55093
C         -2.76959       -0.68921        0.72237
C         -3.61056       -1.70687        0.34133
C         -4.37098       -2.36169        1.29368
C         -4.29138       -1.99761        2.63107
C         -3.45846       -0.94583        2.98951
C         -2.70095       -0.29044        2.03594
H         -2.04760        0.51908        2.31419
H         -3.40237       -0.64676        4.02221
C         -5.10920       -2.70003        3.65778
H         -5.02927       -3.16237        1.00313
H         -3.66527       -1.98459       -0.69950
C         -3.00340        1.43678       -1.15240
C         -3.02490        2.67949       -0.56450
C         -3.90728        3.64014       -1.02378
C         -4.77286        3.36108       -2.07273
C         -4.74961        2.09315       -2.63814
C         -3.86544        1.13365       -2.17862
H         -3.84941        0.14729       -2.61367
H         -5.42788        1.86181       -3.44159
C         -5.73657        4.38959       -2.55321
H         -3.92701        4.61608       -0.56964
H         -2.34967        2.89679        0.24768
H         -1.64364       -0.40156       -2.70421
H          0.94936       -0.37673        2.89048
C          1.31928        2.17175        1.97188
C          2.47344        2.78467        2.39829
C          2.39968        3.92235        3.18050
C          1.16882        4.45180        3.54436
C          0.01438        3.82592        3.09406
C          0.09162        2.68765        2.31233
H         -0.80222        2.20686        1.95094
H         -0.94548        4.23856        3.35400
C          1.08910        5.69471        4.36058
H          3.30101        4.41119        3.50885
H          3.42896        2.37970        2.10910
C          3.08838        0.40390        0.53191
C          3.62332        0.79534       -0.67217
C          4.96862        0.60249       -0.92386
C          5.78929        0.01832        0.03123
C          5.23797       -0.34431        1.25249
C          3.88943       -0.15641        1.49882
H          3.45709       -0.43758        2.44620
H          5.87012       -0.77842        2.00822
C          7.24069       -0.18071       -0.23397
H          5.39091        0.91155       -1.86477
H          2.99213        1.27078       -1.40416
Cl         1.61933        3.14405       -0.91745
H         -1.77594       -6.20527        1.56378
H         -0.90583       -6.20635       -0.99362
H         -3.29983       -6.60016       -0.30787
H         -0.10185       -4.05249       -1.69027
H          4.35338       -4.32209        0.69159
H          2.49419       -2.50194        1.16095
H          4.30319       -2.75349       -3.33602
H          3.86736       -4.60539       -1.75544
H         -5.30424       -3.73310        3.36639
H         -4.59764       -2.71992        4.62115
H         -6.06961       -2.20164        3.79595
H         -6.66259        4.35182       -1.97789
H         -5.32035        5.39332       -2.45670
H         -5.98614        4.23537       -3.60388
H          0.17891        5.71369        4.96165
H          1.93724        5.77329        5.04217
H          1.08842        6.57807        3.72061
H          7.61622       -1.06647        0.28045
H          7.43196       -0.31220       -1.29994
H          7.81852        0.67874        0.10848
