87
-129.18830348
P         -1.59902       -0.32039       -0.27945
P          1.65155        0.38191       -0.02619
C         -1.29743        0.97247       -1.49460
C          1.47396       -0.67210       -1.47790
C         -0.27527        0.84738       -2.42936
C         -0.03904        1.91126       -3.32224
C         -0.84046        3.03873       -3.25880
C         -1.85505        3.13918       -2.33118
C         -2.07756        2.10217       -1.44712
C          2.23989       -1.81176       -1.52885
C          2.10716       -2.69651       -2.58047
C          1.19245       -2.43717       -3.57780
C          0.40526       -1.29885       -3.54577
C          0.55317       -0.38716       -2.48217
Cl         1.16714        0.44657        3.22919
Cl        -1.43599       -1.48120        2.67685
H         -2.46597        4.02600       -2.28948
H         -2.86427        2.17563       -0.71478
H          2.94680       -2.01339       -0.74144
H          2.70985       -3.58923       -2.61598
H         -0.65618        3.84872       -3.94400
H          1.07646       -3.12907       -4.39474
C         -1.79010       -4.43071       -2.20047
C         -0.96921       -4.23376       -1.09850
C         -0.93617       -2.97369       -0.51406
C         -1.70213       -1.94934       -1.01975
C         -2.52244       -2.15483       -2.10402
C         -2.56817       -3.40311       -2.69686
H         -1.81303       -5.39942       -2.66985
C         -0.10248       -5.32730       -0.58194
H         -0.30242       -2.79537        0.33810
H         -3.10792       -1.33513       -2.49010
H         -3.20307       -3.57028       -3.55145
C         -5.34075        0.66687        2.12444
C         -5.34583       -0.41049        1.26049
C         -4.21243       -0.71446        0.53032
C         -3.08608        0.06248        0.66524
C         -3.07743        1.13392        1.52875
C         -4.20440        1.44918        2.27742
H         -6.22342        0.90684        2.69238
H         -6.23147       -1.01575        1.15681
H         -4.19942       -1.55765       -0.14050
H         -2.18699        1.73198        1.62991
C         -4.19160        2.61987        3.19615
C          5.36156       -0.77194        2.35199
C          5.32335        0.43413        1.68065
C          4.19977        0.78473        0.95616
C          3.12430       -0.07104        0.90797
C          3.15975       -1.27242        1.57829
C          4.28344       -1.64479        2.30592
H          6.23146       -1.04274        2.92579
H          6.16587        1.10463        1.72593
H          4.15296        1.72728        0.43609
H          2.30160       -1.92380        1.55311
C          4.30113       -2.92732        3.06034
C          1.53184        4.81924       -0.99092
C          2.42233        3.99695       -1.65333
C          2.46707        2.64715       -1.35702
C          1.62708        2.13627       -0.39576
C          0.75075        2.95530        0.27805
C          0.67795        4.30966       -0.02228
H          1.49224        5.86963       -1.22393
H          3.07682        4.40471       -2.40614
H          3.14197        1.98659       -1.87837
H          0.11250        2.54239        1.04041
C         -0.27846        5.19007        0.70188
Pd        -0.04220       -0.20789        1.46034
C          1.05528        1.85286       -4.33082
C         -0.58052       -1.06765       -4.63818
H          1.75994        1.05020       -4.11084
H          0.65372        1.68529       -5.33094
H          1.61782        2.78736       -4.34796
H         -1.31576       -0.31171       -4.36045
H         -0.08100       -0.73493       -5.54883
H         -1.12483       -1.98404       -4.87046
H          0.87449       -5.30779       -1.06700
H          0.05407       -5.22875        0.49326
H         -0.55049       -6.30518       -0.76371
H         -4.36531        3.54598        2.64633
H         -4.96426        2.53148        3.96109
H         -3.23024        2.70520        3.70504
H          3.73939       -3.70001        2.53328
H          5.32019       -3.29214        3.19637
H          3.85324       -2.80010        4.04686
H         -0.54900        6.05872        0.09992
H         -1.19844        4.65424        0.94125
H          0.15580        5.54799        1.63633
