45
-71.81558935
C          0.63701        1.66649        2.93573
P         -0.09558        0.72019        1.55804
P         -0.14134        0.88510       -1.58546
C          0.52619        1.87969       -2.96266
Cl         2.90131       -0.28218        1.59509
H         -0.11072        1.85173        3.70143
H          1.32613        1.33562       -3.45682
Cl         2.98623       -0.06295       -1.71941
C         -1.36650        1.70386        0.73544
C         -1.38363        1.78084       -0.63931
C         -2.36655        2.50279       -1.28431
C         -3.33120        3.16230       -0.54295
C         -3.31104        3.09130        0.83658
C         -2.32776        2.35895        1.47829
H         -2.37772        2.54036       -2.36164
H         -4.09968        3.72865       -1.04283
H         -4.06314        3.60335        1.41395
H         -2.30663        2.29057        2.55398
Pd         1.51864        0.31316       -0.07271
H          0.92278        2.81572       -2.57985
H          1.01576        2.61689        2.57072
H         -0.25538        2.09596       -3.68528
C         -1.85407       -3.15563       -2.77077
C         -1.82701       -2.75331       -1.45026
C         -1.30271       -1.51697       -1.12241
C         -0.80961       -0.69479       -2.10768
C         -0.83272       -1.09073       -3.42543
C         -1.35801       -2.32657       -3.75840
H         -2.26084       -4.11914       -3.03110
H         -2.20799       -3.39879       -0.67608
H         -1.26257       -1.18924       -0.09838
H         -0.43905       -0.43748       -4.18674
H         -1.37773       -2.64276       -4.78844
C         -1.71354       -3.31023        2.90316
C         -0.35239       -3.11430        2.77640
C          0.12940       -1.87935        2.38462
C         -0.74713       -0.85156        2.12520
C         -2.10453       -1.04140        2.25132
C         -2.59084       -2.27586        2.64180
H         -2.09209       -4.27280        3.20613
H          0.33281       -3.92134        2.97731
H          1.18680       -1.70691        2.26435
H         -2.77777       -0.22921        2.03091
H         -3.65296       -2.43039        2.73823
H          1.45692        1.10412        3.37323
