45
-71.82190625
C          0.38419        1.48585        3.13639
P         -0.18003        0.77217        1.55572
P         -0.14302        0.80259       -1.54526
C          0.45344        1.54553       -3.10045
Cl         2.96257       -0.07962        1.66687
H         -0.44443        1.54701        3.83601
H          1.24200        0.92909       -3.52260
Cl         3.00568       -0.00418       -1.60526
C         -1.35171        1.83668        0.69015
C         -1.33555        1.84984       -0.68699
C         -2.24732        2.61444       -1.38592
C         -3.17463        3.37534       -0.69616
C         -3.19080        3.36218        0.68537
C         -2.27975        2.58801        1.38200
H         -2.23376        2.60605       -2.46359
H         -3.88739        3.97509       -1.23791
H         -3.91616        3.95170        1.22160
H         -2.29146        2.55905        2.45934
Pd         1.51910        0.40818        0.02193
H          0.84739        2.53937       -2.90806
H          0.78516        2.48161        2.97021
H         -0.35981        1.61654       -3.81697
C         -1.74631       -3.42437       -1.98733
C         -0.38788       -3.18704       -2.06503
C          0.09070       -1.89489       -1.95294
C         -0.78899       -0.85429       -1.76436
C         -2.14265       -1.08405       -1.68445
C         -2.62512       -2.37536       -1.79905
H         -2.12145       -4.43132       -2.07022
H          0.29842       -4.00569       -2.20611
H          1.14833       -1.68596       -1.99142
H         -2.81282       -0.25598       -1.51878
H         -3.68426       -2.56239       -1.73235
C         -1.80357       -3.45757        1.88639
C         -2.67589       -2.40179        1.70593
C         -2.18750       -1.11012        1.62521
C         -0.83451       -0.88676        1.73075
C          0.03856       -1.93424        1.91182
C         -0.44579       -3.22668        1.99004
H         -2.18320       -4.46466        1.94285
H         -3.73445       -2.58366        1.61902
H         -2.85234       -0.27649        1.46608
H          1.09610       -1.73003        1.97144
H          0.23562       -4.05042        2.12508
H          1.16147        0.85947        3.56480
