58
-89.86595253
P          1.60074       -0.08467        0.57332
C          2.91590        1.12596        0.76099
C          2.63942        2.47320        0.81212
C          3.67048        3.38134        0.97047
C          4.97204        2.93349        1.08069
C          5.24537        1.58086        1.03187
C          4.21183        0.67502        0.87224
H          4.40880       -0.38459        0.83023
H          1.62172        2.81331        0.70793
C          2.21823       -1.52372       -0.30399
C          2.49185       -2.70362        0.35013
C          2.95687       -3.79113       -0.36715
C          3.14842       -3.68705       -1.73120
C          2.88193       -2.49782       -2.38070
C          2.41760       -1.41281       -1.66078
H          2.20718       -0.47132       -2.14336
H          2.33583       -2.77376        1.41429
C          0.99492       -0.48860        2.26543
C          0.16960        0.67184        2.81602
C         -1.32429        0.57439        2.52512
P         -1.74427        0.02989        0.81298
C         -3.43299        0.49317        0.41127
C         -4.25388       -0.42105       -0.20942
C         -5.54878       -0.06883       -0.54514
C         -6.01097        1.20087       -0.26099
C         -5.18168        2.11797        0.35381
C         -3.88728        1.76225        0.68873
H         -3.22328        2.47814        1.14594
H         -3.87698       -1.40620       -0.43266
C         -1.58262       -1.76428        0.73277
C         -2.20130       -2.52956        1.69566
C         -2.06636       -3.90642        1.67558
C         -1.31312       -4.50989        0.68868
C         -0.70369       -3.74084       -0.28154
C         -0.84332       -2.36620       -0.26000
H         -0.37472       -1.76742       -1.02220
H         -2.79428       -2.04957        2.45780
Pd        -0.13893        0.79798       -0.68777
Cl         1.43582        1.77849       -1.95829
Cl        -1.83902        1.85734       -1.70466
H         -1.79633       -0.15140        3.18982
H         -1.82354        1.52820        2.70791
H          0.32125        0.76505        3.90313
H          0.56569        1.60787        2.39799
H          0.41734       -1.41342        2.24168
H          1.88625       -0.67974        2.86816
H          3.45745        4.43722        1.00267
H          6.26097        1.23058        1.11616
H          3.16652       -4.71938        0.13852
H          3.03518       -2.41395       -3.44398
H         -6.19301       -0.78312       -1.03096
H         -5.53870        3.11238        0.56588
H         -2.54800       -4.50600        2.43045
H         -0.11416       -4.20931       -1.05247
H          5.77605        3.64096        1.20237
H          3.50925       -4.53534       -2.28967
H         -7.01842        1.47853       -0.52501
H         -1.20337       -5.58202        0.67379
