45
-71.82167433
C          0.41992        1.47279        3.12461
P         -0.16928        0.75784        1.55381
P         -0.15056        0.80436       -1.55371
C          0.42413        1.54891       -3.11628
Cl         2.94188       -0.17555        1.63756
H          1.19620        0.84086        3.54662
H          1.20937        0.93504       -3.54821
Cl         3.04099        0.16681       -1.62096
C         -1.34133        1.82955        0.69732
C         -1.33539        1.84769       -0.67998
C         -2.25034        2.61738       -1.36906
C         -3.17042        3.37830       -0.66967
C         -3.17619        3.36027        0.71185
C         -2.26208        2.58098        1.39873
H         -2.24476        2.61329       -2.44684
H         -3.88543        3.98209       -1.20391
H         -3.89576        3.94991        1.25569
H         -2.26594        2.54801        2.47604
Pd         1.51463        0.39407        0.00401
H          0.81754        2.54385       -2.92860
H         -0.39986        1.54477        3.83353
H         -0.39809        1.61756       -3.82273
C         -1.71759       -3.43842       -1.96611
C         -2.60143       -2.40273       -1.73297
C         -2.13151       -1.10599       -1.62826
C         -0.78554       -0.85774       -1.76286
C          0.09965       -1.88483       -1.99551
C         -0.36672       -3.18244       -2.09813
H         -2.08268       -4.44966       -2.04129
H         -3.65426       -2.60451       -1.62329
H         -2.80479       -0.28824       -1.42760
H          1.15241       -1.66217       -2.07358
H          0.32365       -3.99095       -2.27367
C         -1.84807       -3.44750        1.92482
C         -0.48417       -3.23863        1.98525
C          0.01803       -1.95391        1.89466
C         -0.84301       -0.89188        1.74376
C         -2.20219       -1.09343        1.68176
C         -2.70858       -2.37730        1.77528
H         -2.24187       -4.44851        1.99139
H          0.18791       -4.07349        2.09674
H          1.07987       -1.76679        1.92392
H         -2.85840       -0.24880        1.54671
H         -3.77224       -2.54182        1.72289
H          0.82824        2.46402        2.94943
