171
-217.84583414
P         -1.57859        0.40162       -0.37269
P          1.61053       -0.32639       -0.26874
C         -0.82306        1.45038       -1.62398
C          0.98388       -1.21764       -1.69748
C          0.03005        0.91688       -2.58379
C          0.68746        1.79323       -3.46878
C          0.43838        3.15299       -3.38579
C         -0.43425        3.65973       -2.44647
C         -1.05674        2.80274       -1.56077
C          1.21192       -2.56924       -1.78350
C          0.70189       -3.29393       -2.84270
C         -0.04768       -2.65618       -3.80837
C         -0.28928       -1.29414       -3.74065
C          0.24838       -0.55236       -2.67115
Cl         1.45903        0.20962        2.98952
Cl        -1.72240       -0.34342        2.81068
C         -1.09170       -0.63659       -4.80857
C          1.64860        1.28999       -4.48848
H         -0.62477        4.71937       -2.39737
H         -1.72990        3.19281       -0.81518
H          1.79520       -3.06050       -1.02200
H          0.88890       -4.35292       -2.91362
H          0.94168        3.81801       -4.06728
H         -0.45470       -3.21839       -4.63188
C         -3.60998       -3.35726       -1.85646
C         -2.71720       -3.44867       -0.79566
C         -2.08012       -2.28615       -0.38403
C         -2.33076       -1.09247       -1.01348
C         -3.21954       -1.01622       -2.05773
C         -3.88282       -2.15569       -2.49913
H         -4.12542       -4.23975       -2.18550
H         -1.39915       -2.30650        0.44955
H         -3.40265       -0.05618       -2.50949
C         -4.67589        2.65339        2.06148
C         -3.34179        3.02823        2.17065
C         -2.41195        2.35140        1.39262
C         -2.80421        1.32879        0.56525
C         -4.12438        0.96228        0.48166
C         -5.09202        1.62544        1.22468
H         -5.41548        3.16353        2.64927
H         -1.36775        2.60893        1.44700
H         -4.39260        0.14237       -0.16005
C          4.28073       -2.95114        2.29621
C          2.93183       -3.26924        2.19237
C          2.14166       -2.47466        1.37210
C          2.67613       -1.39151        0.71955
C          4.00567       -1.07857        0.85448
C          4.84037       -1.86138        1.64109
H          4.91763       -3.56003        2.90958
H          1.09381       -2.68800        1.25116
H          4.38541       -0.20885        0.34947
C          3.88928        3.44554       -1.27700
C          2.82398        3.52353       -0.38923
C          2.13301        2.35354       -0.10150
C          2.48664        1.17272       -0.70495
C          3.53037        1.11482       -1.59574
C          4.26124        2.25878       -1.89599
H          4.45999        4.33352       -1.47696
H          1.31839        2.35078        0.60153
H          3.77515        0.16580       -2.04178
Pd        -0.05070       -0.02269        1.34424
C         -0.95335       -5.13119       -0.22862
C         -2.43614       -4.76275       -0.05421
C         -3.29527       -5.92135       -0.59547
C         -2.75401       -4.57877        1.44222
H         -0.30713       -4.33611        0.13904
H         -0.71056       -6.04409        0.31484
H         -0.71917       -5.29173       -1.28035
H         -3.08387       -6.10856       -1.64810
H         -3.08937       -6.84222       -0.04991
H         -4.35797       -5.70441       -0.48852
H         -2.14128       -3.79586        1.88664
H         -3.79871       -4.30184        1.58173
H         -2.57101       -5.49914        1.99642
C         -6.30382       -2.51445       -3.02947
C         -4.93694       -2.11334       -3.61483
C         -4.54660       -3.09852       -4.73262
C         -5.06467       -0.70356       -4.22422
H         -6.27892       -3.52506       -2.62343
H         -6.59150       -1.83866       -2.22468
H         -7.08081       -2.48014       -3.79294
H         -3.56390       -2.85872       -5.13602
H         -4.51437       -4.12353       -4.36555
H         -5.26483       -3.06242       -5.55157
H         -5.37979        0.02128       -3.47385
H         -4.11862       -0.37062       -4.64909
H         -5.80674       -0.69329       -5.02244
C         -2.43244        5.35611        2.24546
C         -2.87172        4.15546        3.10056
C         -1.68626        3.65973        3.95327
C         -3.99240        4.61025        4.05553
H         -1.63651        5.07510        1.55798
H         -3.26561        5.73189        1.65182
H         -2.06695        6.17033        2.87092
H         -1.36920        4.42407        4.66238
H         -1.96456        2.76958        4.51695
H         -0.82533        3.40704        3.33652
H         -4.83006        5.03899        3.50602
H         -4.35990        3.77480        4.65119
H         -3.62824        5.37373        4.74290
C         -7.01852        0.72815        2.54959
C         -6.57487        1.23243        1.16467
C         -6.82397        0.11425        0.13256
C         -7.41475        2.45885        0.76230
H         -8.06468        0.42288        2.53768
H         -6.41919       -0.12904        2.85593
H         -6.90461        1.50287        3.30699
H         -6.51726        0.42821       -0.86504
H         -6.27716       -0.79161        0.39397
H         -7.88221       -0.14259        0.08748
H         -8.47076        2.20006        0.68651
H         -7.32155        3.26178        1.49245
H         -7.09188        2.84554       -0.20416
C          0.90669       -4.14141        3.42261
C          2.32264       -4.48121        2.91211
C          3.17533       -4.89718        4.12751
C          2.24782       -5.65632        1.92363
H          0.21465       -3.96633        2.60123
H          0.50097       -4.95863        4.01862
H          0.92541       -3.24668        4.04460
H          2.68817       -5.69585        4.68680
H          4.15290       -5.26761        3.82107
H          3.32170       -4.05571        4.80453
H          1.65998       -5.38908        1.04667
H          3.24385       -5.93663        1.58136
H          1.78947       -6.53001        2.38661
C          7.17430       -2.75214        1.39073
C          6.33034       -1.53782        1.82034
C          6.60046       -1.21223        3.30033
C          6.75416       -0.32638        0.96622
H          8.23911       -2.53898        1.48342
H          6.95610       -3.62538        2.00418
H          6.97157       -3.01302        0.35213
H          6.35977       -2.05955        3.94138
H          7.64839       -0.95890        3.45987
H          5.99453       -0.36607        3.62384
H          7.81656       -0.11726        1.09054
H          6.57588       -0.51436       -0.09238
H          6.20668        0.57031        1.25617
C          2.27900        5.94114       -0.80550
C          2.47254        4.86090        0.27557
C          3.61700        5.26850        1.21960
C          1.17047        4.75692        1.09234
H          3.19610        6.11284       -1.36729
H          1.50477        5.64387       -1.51176
H          1.98191        6.89002       -0.35920
H          4.55243        5.38911        0.67409
H          3.39486        6.21162        1.71854
H          3.77230        4.50869        1.98538
H          0.90393        5.72238        1.52205
H          0.34442        4.43240        0.46052
H          1.27654        4.04995        1.91472
C          5.34223        3.30365       -3.91666
C          5.48739        2.23104       -2.81995
C          5.65314        0.85814       -3.50038
C          6.74757        2.52034       -1.98432
H          5.28996        4.30487       -3.49124
H          6.19226        3.27917       -4.59837
H          4.43862        3.14226       -4.50250
H          5.82069        0.07190       -2.76460
H          4.77050        0.60100       -4.08534
H          6.50860        0.86201       -4.17571
H          7.64256        2.49750       -2.60580
H          6.69091        3.50145       -1.51387
H          6.86552        1.77875       -1.19504
H         -1.53413        0.29617       -4.45612
H          2.55769        1.89116       -4.49047
H         -1.90436       -1.28293       -5.14005
H         -0.47241       -0.41037       -5.67746
H          1.21594        1.33527       -5.48883
H          1.93943        0.25750       -4.29065
