59
-75.80812836
Cl         1.61716        0.55585        2.32075
P          1.57700        0.06205       -0.84338
P         -1.64905       -0.09378       -0.76861
C          0.56583        0.18005       -2.38234
H          0.29206        1.22423       -2.54620
H          1.18339       -0.13354       -3.22946
C         -0.66243       -0.67167       -2.22232
H         -0.38550       -1.71445       -2.04686
H         -1.30438       -0.64586       -3.10836
C          2.59765       -1.48303       -0.85926
H          2.62080       -1.82971       -1.89969
C          2.92412        1.32592       -0.66474
H          2.84680        1.70376        0.36215
C         -3.05036       -1.25044       -0.41092
H         -3.40477       -0.99641        0.59573
C         -2.67842        1.36838       -1.26622
H         -2.16897        1.85191       -2.10851
C          3.98897       -0.98824       -0.43024
H          4.07944       -1.08984        0.66010
H          4.77497       -1.63122       -0.85494
C          4.20979        0.49522       -0.82969
H          4.53181        0.54709       -1.87891
H          5.03066        0.94065       -0.24722
C         -4.07942       -0.80363       -1.46233
H         -3.86770       -1.33754       -2.40023
H         -5.09213       -1.12091       -1.16822
C         -4.02236        0.73339       -1.70740
H         -4.83684        1.21721       -1.15069
H         -4.22557        0.96083       -2.76439
C          2.00588       -2.55957        0.04010
H          0.97244       -2.75550       -0.27369
H          1.93192       -2.16608        1.06266
C          2.80831        2.48168       -1.65325
H          3.75682        3.03666       -1.66649
H          2.69986        2.07257       -2.66614
C         -2.67744       -2.72768       -0.47149
H         -3.59729       -3.32743       -0.51325
H         -2.16240       -2.92932       -1.41884
C         -2.84854        2.35286       -0.10936
H         -3.69783        3.01599       -0.32690
H         -3.14403        1.78942        0.78589
C          2.80442       -3.85436        0.02956
H          2.35286       -4.61885        0.66598
H          3.82438       -3.69502        0.38382
H          2.87453       -4.26555       -0.97926
C          1.66397        3.42839       -1.33170
H          0.70882        2.90502       -1.32852
H          1.58904        4.24432       -2.05419
H          1.78646        3.87424       -0.34269
C         -1.82711       -3.17077        0.70857
H         -0.91810       -2.57540        0.78717
H         -1.53054       -4.21938        0.63334
H         -2.36514       -3.04685        1.65034
C         -1.61546        3.19385        0.17832
H         -1.34090        3.79792       -0.68829
H         -1.77390        3.87749        1.01548
H         -0.75609        2.57316        0.42936
Cl        -1.62507        0.03396        2.39391
Pd        -0.00069        0.07511        0.84527
