105
-153.07274661
Cl        -0.84500        2.11401       -2.87044
Pd         0.09047        1.51089       -0.91465
P          1.34467        0.72856        0.87865
N          0.63571       -0.51259        1.89749
C          0.03402       -1.74116        1.66703
C         -0.10029       -2.33138        0.38641
C         -0.83119       -3.52927        0.24736
C         -0.96638       -4.13639       -1.12984
C         -1.50354       -5.57625       -1.14531
C         -2.66404       -5.74248       -0.15997
C         -2.21278       -5.40740        1.26957
C         -1.40279       -4.13944        1.36568
C         -1.21440       -3.57047        2.61806
C         -0.51228       -2.40276        2.76652
H         -0.40415       -1.96073        3.74176
H         -1.64669       -4.05110        3.47939
H         -3.08321       -5.32271        1.93286
H         -3.48392       -5.07368       -0.45024
H         -1.81056       -5.86742       -2.15977
H         -1.62265       -3.49165       -1.72613
C          0.66590       -1.84645       -0.78711
C         -0.00879       -1.23208       -1.87721
C          0.70219       -1.01117       -3.06031
C          2.01471       -1.38902       -3.17733
C          2.67600       -2.02769       -2.13543
C          4.08508       -2.51036       -2.35781
C          4.43451       -3.72417       -1.48567
C          4.11280       -3.43345       -0.01683
C          2.63117       -3.06537        0.18172
C          2.00323       -2.26025       -0.93466
H          2.04492       -3.98348        0.30799
H          4.74412       -2.60697        0.32738
H          5.48961       -4.00718       -1.60905
H          4.77897       -1.68925       -2.14737
H          2.54448       -1.20648       -4.09686
H          0.20608       -0.51873       -3.87808
N         -1.34580       -0.82207       -1.79877
P         -1.83667        0.19060       -0.43640
C         -2.80027       -0.73982        0.75397
C         -3.55521       -1.79040        0.29127
C         -4.35710       -2.49919        1.16777
C         -4.40422       -2.15635        2.51216
C         -3.65783       -1.07120        2.95246
C         -2.86039       -0.36089        2.07369
H         -2.28162        0.48107        2.41408
H         -3.70280       -0.78775        3.99012
C         -5.26600       -2.91610        3.45904
H         -4.94879       -3.32527        0.81246
H         -3.50846       -2.05213       -0.75392
C         -2.94891        1.49650       -0.97382
C         -2.90096        2.72663       -0.36116
C         -3.76001        3.73004       -0.77011
C         -4.68060        3.50243       -1.78413
C         -4.71554        2.25163       -2.38595
C         -3.85461        1.24919       -1.97685
H         -3.88765        0.27421       -2.43590
H         -5.41875        2.06852       -3.18034
C         -5.58284        4.59280       -2.24717
H         -3.71640        4.70035       -0.30567
H         -2.18716        2.90171        0.42804
H         -1.69517       -0.34541       -2.62028
H          0.82749       -0.25765        2.85881
C          1.29170        2.23510        1.85611
C          2.41344        3.00379        2.05579
C          2.32169        4.17535        2.78434
C          1.10665        4.58263        3.31922
C         -0.01741        3.79870        3.09604
C          0.07780        2.62668        2.36786
H         -0.79110        2.01569        2.18724
H         -0.96809        4.11356        3.49128
C          1.00293        5.86060        4.07649
H          3.19504        4.78644        2.93591
H          3.35338        2.69281        1.63020
C          3.07665        0.36693        0.59264
C          3.69579        0.71197       -0.58477
C          5.04820        0.47740       -0.74665
C          5.79445       -0.08953        0.27724
C          5.15516       -0.41993        1.46462
C          3.79978       -0.18914        1.62128
H          3.30090       -0.43656        2.54496
H          5.72335       -0.86449        2.26377
C          7.24259       -0.37886        0.08784
H          5.53468        0.74103       -1.67026
H          3.12449        1.18661       -1.36464
Cl         1.72250        3.03421       -1.19210
H         -1.61595       -6.23427        1.67258
H         -0.69651       -6.26810       -0.87318
H         -3.07941       -6.75886       -0.21271
H          0.00947       -4.09823       -1.63001
H          4.38745       -4.28935        0.61556
H          2.50392       -2.51285        1.12048
H          4.22430       -2.74876       -3.42000
H          3.85282       -4.59226       -1.82058
H         -4.81668       -2.95656        4.45235
H         -6.24704       -2.44819        3.55119
H         -5.41278       -3.94298        3.12117
H         -5.83066        5.27229       -1.43051
H         -5.10966        5.17575       -3.03845
H         -6.51842        4.19084       -2.63854
H          0.18519        5.82650        4.79773
H          1.92153        6.06694        4.62752
H          0.82070        6.69695        3.40036
H          7.70648        0.35298       -0.57490
H          7.77782       -0.35092        1.03796
H          7.38538       -1.36777       -0.35018
