75
-122.81209382
P          1.90503       -0.53063        0.14358
C          1.63098       -1.57021       -1.29402
C          1.27105       -2.88400       -1.09911
C          1.17207       -3.73567       -2.18482
C          1.44148       -3.26540       -3.45493
C          1.80413       -1.94642       -3.64405
C          1.90182       -1.09700       -2.55739
H          2.19149       -0.06682       -2.68656
H          2.00970       -1.57845       -4.63573
H          1.36121       -3.92759       -4.30146
H          0.88591       -4.76411       -2.03820
H          1.08496       -3.24024       -0.09785
C          3.34622       -1.22139        0.98466
C          4.28628       -1.87701        0.22094
C          5.41199       -2.41449        0.81878
C          5.59294       -2.28886        2.18151
C          4.65446       -1.62333        2.94393
C          3.53356       -1.08742        2.34034
H          2.81165       -0.54004        2.92005
H          4.79792       -1.51556        4.00658
H          6.46918       -2.70695        2.64963
H          6.14540       -2.93020        0.22093
H          4.13494       -1.96717       -0.84293
C          2.26225        1.16227       -0.33731
C          3.41699        1.81542        0.02420
C          3.58314        3.16320       -0.26464
C          2.55280        3.83961       -0.91691
C          1.38597        3.19829       -1.27036
C          1.24190        1.82862       -0.99813
O          0.07295        1.13316       -1.34684
C         -1.13644        1.78934       -1.06819
C         -1.29692        3.16073       -1.32189
C         -2.48814        3.77190       -0.99973
C         -3.53513        3.05625       -0.42017
C         -3.35627        1.70471       -0.16013
C         -2.17822        1.07759       -0.49236
P         -1.79516       -0.64501       -0.11840
C         -3.10019       -1.38555        0.87857
C         -4.38261       -1.39420        0.37827
C         -5.40288       -1.97864        1.10676
C         -5.12907       -2.55956        2.32878
C         -3.83856       -2.56350        2.81924
C         -2.82078       -1.97937        2.08800
H         -1.80917       -1.98383        2.45983
H         -3.62346       -3.02031        3.77127
H         -5.92289       -3.01434        2.89860
H         -6.40810       -1.98316        0.71849
H         -4.57755       -0.95780       -0.58897
C         -1.74811       -1.57214       -1.66216
C         -1.41088       -0.94923       -2.84173
C         -1.46651       -1.64763       -4.03331
C         -1.85385       -2.97277       -4.03507
C         -2.18201       -3.59927       -2.84919
C         -2.13122       -2.89434       -1.66008
H         -2.40130       -3.36658       -0.72902
H         -2.48138       -4.63442       -2.84927
H         -1.89336       -3.52067       -4.96233
H         -1.19935       -1.16008       -4.95638
H         -1.08664        0.07738       -2.82167
Pd        -0.06104       -0.05993        1.39697
Cl        -1.70298        0.88532        2.64253
Cl         1.32933        0.95675        2.86145
H         -4.13443        1.15039        0.33305
C         -4.79673        3.73958       -0.02939
H         -5.65017        3.06527       -0.11168
H         -4.99237        4.60176       -0.66820
H         -4.74216        4.08935        1.00226
H         -2.60345        4.82446       -1.18933
S          0.04743        4.06430       -2.04741
H          2.66128        4.88654       -1.13905
C          4.84010        3.86864        0.10198
H          4.18560        1.27913        0.55334
H          5.55419        3.84113       -0.72202
H          4.64676        4.91393        0.34640
H          5.31057        3.40748        0.97137
