111
-148.55599536
P         -2.58213       -2.20558       -0.59988
P          0.05823       -0.41700       -0.43660
C         -1.56625       -1.92784       -2.08126
C         -0.40814       -1.18547       -1.99748
C         -3.44175       -3.84199       -0.72255
C         -3.26745       -4.65603        0.54023
C         -1.95382       -2.45624       -3.29669
H         -2.87043       -3.01829       -3.36641
C         -1.17253       -2.25151       -4.42083
H         -1.47534       -2.66618       -5.36846
C         -0.00692       -1.51599       -4.33007
H          0.60223       -1.35656       -5.20457
C          0.37356       -0.97697       -3.11452
H          1.27747       -0.39442       -3.02886
Pd        -1.23016       -1.50455        1.14364
Cl        -2.80696       -2.29210        2.52796
Cl         0.16132       -0.74789        2.73077
C         -4.90336       -3.43710       -1.00694
C         -4.03969       -1.06943       -0.51315
H         -3.74592       -5.63474        0.45702
H         -2.21099       -4.81267        0.77012
H         -3.71685       -4.14301        1.39165
H         -5.58167       -4.20002       -0.59750
H         -5.08646       -3.43030       -2.09150
H         -3.93087       -0.49102        0.41419
C         -5.23816       -2.03658       -0.42037
C         -4.07503       -0.14514       -1.71121
H         -3.00056       -4.37259       -1.57679
H         -6.10438       -1.59748       -0.93627
H         -5.54546       -2.14819        0.62991
H         -4.93052        0.53325       -1.66977
H         -3.16704        0.45992       -1.77322
H         -4.15116       -0.71876       -2.63684
C         -1.14249        3.98042       -0.39202
C         -0.26689        3.49097       -1.39433
C          0.07662        2.14922       -1.36690
C         -0.46889        1.29682       -0.44257
C         -1.40023        1.74508        0.45752
C         -1.79195        3.07237        0.48220
O         -1.33037        5.37920       -0.23366
C          0.33855        4.39601       -2.47843
H          0.79681        1.75313       -2.06163
H         -1.80421        1.05017        1.17083
C         -2.87370        3.50868        1.48232
C          4.50061       -0.67516        0.52840
C          3.75151        0.46869        0.90419
C          2.40078        0.49379        0.60171
C          1.81228       -0.52224       -0.10396
C          2.55082       -1.58516       -0.55362
C          3.90857       -1.67081       -0.29110
O          5.82896       -0.84161        1.00262
C          4.36413        1.65721        1.66106
H          1.77879        1.30879        0.93032
H          2.04673       -2.35454       -1.11229
C          4.71053       -2.84530       -0.87381
C         -0.62039        5.54373       -2.84368
C          1.67625        4.96253       -1.97897
C          0.59462        3.59447       -3.77510
C         -3.89078        2.36789        1.71531
C         -2.21015        3.85823        2.82290
C         -3.67055        4.71462        0.95269
C         -0.40393        5.98622        0.65862
H         -0.21931        6.14524       -3.65905
H         -1.58754        5.15095       -3.15564
H         -0.78670        6.20626       -1.99797
H          1.54331        5.54507       -1.07037
H          2.37622        4.15742       -1.75751
H          2.13156        5.60809       -2.72955
H          1.38837        2.86025       -3.64594
H         -0.30769        3.07217       -4.09224
H          0.90060        4.25636       -4.58498
H         -4.72392        2.71185        2.32768
H         -4.29672        2.01314        0.76850
H         -3.44128        1.52337        2.23524
H         -1.49776        4.67211        2.70916
H         -2.95361        4.16092        3.55975
H         -1.67064        2.99892        3.22063
H         -4.47957        4.97913        1.63313
H         -3.03712        5.59071        0.83951
H         -4.10557        4.48920       -0.02041
H         -0.94072        6.44140        1.49074
H          0.29744        5.24393        1.04199
H          0.14556        6.77006        0.13750
C          5.91660       -1.52750        2.24530
C          5.84159        1.85880        1.27925
C          3.62513        2.96849        1.30578
C          4.23352        1.41458        3.17233
C          6.16472       -2.43330       -1.16723
C          4.68263       -4.02075        0.11465
C          4.09730       -3.31217       -2.21390
H          6.25643        2.73912        1.76959
H          6.44732        1.00444        1.57047
H          5.94497        1.98975        0.20262
H          4.13485        3.82938        1.73777
H          3.58638        3.10988        0.22621
H          2.60597        2.97613        1.68942
H          4.75861        0.51119        3.47320
H          4.64539        2.24890        3.73944
H          3.18721        1.29762        3.45377
H          6.69369       -2.16748       -0.25543
H          6.71431       -3.24602       -1.64150
H          6.19237       -1.57123       -1.83286
H          5.12734       -3.74491        1.06774
H          3.65801       -4.33813        0.30687
H          5.23288       -4.87506       -0.27882
H          3.12092       -3.77308       -2.07239
H          4.73463       -4.05510       -2.69295
H          3.98506       -2.47430       -2.90160
H          6.52943       -2.42099        2.12720
H          6.39156       -0.88452        2.98607
H          4.92251       -1.81091        2.59357
