105
-153.06744250
Cl        -1.01536        3.31553       -2.06400
Pd        -0.05773        1.79021       -0.72343
P          0.95994        0.49501        0.98766
N         -0.04851       -0.80775        1.60452
C         -0.10104       -2.19820        1.41002
C          0.22428       -2.84118        0.18551
C         -0.04900       -4.21642        0.02866
C          0.10244       -4.85126       -1.33401
C         -0.74238       -6.12164       -1.50439
C         -0.48636       -7.08591       -0.34226
C         -0.84780       -6.43832        1.00563
C         -0.54328       -4.96130        1.10269
C         -0.82164       -4.31707        2.30182
C         -0.63032       -2.96756        2.44473
H         -0.88728       -2.47721        3.36782
H         -1.22192       -4.89176        3.12004
H         -1.91732       -6.58018        1.20263
H         -1.03960       -8.02457       -0.48673
H         -1.80535       -5.85046       -1.52498
H         -0.15928       -4.11611       -2.10544
C          0.63866       -2.04550       -0.99530
C         -0.31747       -1.17992       -1.58213
C          0.02031       -0.48689       -2.74389
C          1.26075       -0.63483       -3.30894
C          2.21519       -1.47856       -2.75016
C          3.54599       -1.61084       -3.45723
C          4.57503       -2.53505       -2.77548
C          3.89408       -3.67611       -2.01141
C          2.93376       -3.09479       -0.96684
C          1.90380       -2.18980       -1.58876
H          2.45632       -3.88589       -0.37861
H          4.63341       -4.34250       -1.54512
H          5.18305       -1.95071       -2.07415
H          3.96988       -0.60678       -3.58501
H          1.51004       -0.08798       -4.20245
H         -0.70185        0.18162       -3.17756
N         -1.54655       -0.99089       -0.94881
P         -2.10125        0.65791       -0.69702
C         -2.62638        0.89816        0.99951
C         -2.24348        2.04058        1.66229
C         -2.48723        2.16190        3.01708
C         -3.10457        1.13541        3.71775
C         -3.51046        0.00276        3.02515
C         -3.27264       -0.11559        1.66772
H         -3.56075       -1.00764        1.13407
H         -4.00583       -0.79104        3.55795
C         -3.35852        1.26381        5.17922
H         -2.17913        3.04934        3.54323
H         -1.73922        2.82808        1.12491
C         -3.33598        1.16799       -1.88171
C         -3.57755        0.36521       -2.97026
C         -4.51838        0.74718       -3.91001
C         -5.22502        1.93296       -3.75788
C         -4.96059        2.73197       -2.65295
C         -4.02004        2.34760       -1.71422
H         -3.80772        2.96688       -0.85710
H         -5.49196        3.66083       -2.53495
C         -6.21577        2.36090       -4.78398
H         -4.70739        0.12661       -4.76921
H         -3.03142       -0.55876       -3.07429
H         -1.63718       -1.44572       -0.04736
H         -0.87848       -0.34883        1.96226
C          1.01498        1.69608        2.32493
C          1.36086        3.00761        2.10526
C          1.36345        3.90678        3.15402
C          1.03171        3.49525        4.43782
C          0.69216        2.16532        4.64478
C          0.68897        1.26939        3.59078
H          0.42171        0.23716        3.74855
H          0.42275        1.83706        5.63409
C          0.99789        4.46966        5.56322
H          1.62107        4.93761        2.98047
H          1.62655        3.32202        1.11072
C          2.63753       -0.12694        0.85889
C          3.54886        0.34149       -0.05660
C          4.84908       -0.12488       -0.04052
C          5.25509       -1.05371        0.90825
C          4.32606       -1.51085        1.83333
C          3.02252       -1.04498        1.80816
H          2.29656       -1.39504        2.52517
H          4.62629       -2.23860        2.56759
C          6.64517       -1.58681        0.90465
H          5.56096        0.23849       -0.76187
H          3.24762        1.09279       -0.76469
Cl         1.95391        2.75141       -0.99851
H         -0.33084       -6.95499        1.82429
H         -0.54008       -6.60520       -2.47060
H          0.57385       -7.36919       -0.33816
H          1.15586       -5.09654       -1.50473
H          3.33047       -4.30007       -2.71602
H          3.50693       -2.51231       -0.24128
H          3.35161       -1.97342       -4.47387
H          5.28727       -2.93354       -3.51142
H         -3.32705        0.29042        5.67077
H         -2.60855        1.89796        5.65434
H         -4.33896        1.70430        5.36510
H         -5.72992        2.93252       -5.57587
H         -6.70520        1.50002       -5.24160
H         -6.99274        2.98798       -4.34452
H          1.25156        3.98796        6.50856
H          1.70984        5.28068        5.40384
H          0.00447        4.90875        5.66491
H          6.70169       -2.51608        0.33593
H          7.33975       -0.87519        0.45619
H          6.98989       -1.79129        1.91923
