111
-148.55711577
P         -2.53248       -1.95351       -1.19610
P          0.17986       -0.46685       -0.46297
C         -1.31995       -1.58642       -2.49481
C         -0.12197       -0.99112       -2.16182
C         -3.39241       -3.56488       -1.49564
C         -2.87600       -4.65126       -0.57774
C         -1.59254       -1.89214       -3.81293
H         -2.53871       -2.33803       -4.07225
C         -0.65770       -1.60865       -4.79378
H         -0.87017       -1.84719       -5.82314
C          0.54511       -1.01853       -4.45602
H          1.27168       -0.79556       -5.21992
C          0.81167       -0.70425       -3.13561
H          1.73778       -0.22653       -2.85670
Pd        -1.41129       -1.58399        0.78718
Cl        -3.21303       -2.44813        1.81184
Cl        -0.25441       -1.18099        2.66741
C         -4.87518       -3.20019       -1.29619
C         -3.98151       -0.80233       -1.17953
H         -1.80374       -4.81009       -0.71498
H         -3.03559       -4.38484        0.46779
H         -3.38591       -5.60076       -0.75655
H         -5.14773       -3.39490       -0.24971
H         -5.51786       -3.86126       -1.89741
H         -4.11685       -0.50041       -0.13222
C         -5.14542       -1.70490       -1.63062
C         -3.73946        0.40499       -2.05945
H         -3.20401       -3.82799       -2.54417
H         -5.28113       -1.59124       -2.71496
H         -6.08983       -1.36607       -1.17825
H         -3.53747        0.10063       -3.08807
H         -4.60593        1.07017       -2.07310
H         -2.87844        0.97996       -1.71264
C         -1.18165        3.84861        0.06275
C         -0.89944        3.35586       -1.23716
C         -0.46979        2.04578       -1.36363
C         -0.38005        1.22381       -0.27156
C         -0.74052        1.66775        0.97226
C         -1.19119        2.96084        1.16887
O         -1.41781        5.23505        0.26065
C         -1.02093        4.22804       -2.49623
H         -0.19196        1.64828       -2.32365
H         -0.65795        0.97902        1.79492
C         -1.66432        3.37659        2.57024
C          4.52649       -0.70704        0.85976
C          4.04846        0.44780        0.18923
C          2.71607        0.48133       -0.18656
C          1.89660       -0.59871        0.01370
C          2.37990       -1.75715        0.56190
C          3.70153       -1.85650        0.96581
O          5.81515       -0.69872        1.45700
C          4.93352        1.67057       -0.09907
H          2.29066        1.36649       -0.62776
H          1.69906       -2.58063        0.69181
C          4.20413       -3.18429        1.55384
C          0.31268        4.94960       -2.74291
C         -1.34844        3.36224       -3.73448
C         -2.16108        5.25216       -2.35144
C         -2.75724        4.45766        2.49030
C         -2.28085        2.16879        3.31399
C         -0.46474        3.89208        3.37930
C         -0.24637        5.98420        0.55890
H          1.12122        4.23057       -2.87361
H          0.26232        5.56805       -3.63869
H          0.57386        5.59211       -1.90552
H         -0.51850        2.71025       -4.00289
H         -2.22735        2.74393       -3.55488
H         -1.55401        3.99005       -4.60118
H         -3.10247        4.74947       -2.13195
H         -1.96275        5.95528       -1.54626
H         -2.28932        5.82816       -3.26755
H         -3.13701        4.70514        3.48124
H         -2.37789        5.37404        2.04537
H         -3.59340        4.11306        1.88274
H         -3.05290        1.69382        2.70915
H         -1.53068        1.41893        3.56007
H         -2.73698        2.48349        4.25219
H          0.29986        3.12053        3.46740
H         -0.00891        4.75616        2.90164
H         -0.76796        4.18341        4.38457
H          0.63127        5.33646        0.55474
H         -0.11950        6.77319       -0.18225
H         -0.34889        6.45088        1.53839
C          5.82714       -0.23578        2.80175
C          4.45780        2.39831       -1.37773
C          4.84633        2.65019        1.08121
C          6.39594        1.25393       -0.33871
C          5.69763       -3.39909        1.24820
C          3.96640       -3.18687        3.07169
C          3.44308       -4.37881        0.93494
H          5.15784        3.18512       -1.65794
H          4.38306        1.70367       -2.21402
H          3.48697        2.87117       -1.23624
H          3.81732        2.97326        1.23809
H          5.19185        2.18905        2.00325
H          5.45443        3.53596        0.89931
H          6.46004        0.52798       -1.14857
H          7.01004        2.11401       -0.60447
H          6.83078        0.80158        0.54895
H          6.31369       -2.63926        1.72230
H          6.03604       -4.36969        1.60999
H          5.87975       -3.35465        0.17497
H          4.50413       -2.37580        3.55654
H          2.90718       -3.06111        3.29510
H          4.29730       -4.12441        3.51765
H          3.88285       -5.32390        1.25279
H          3.48169       -4.34110       -0.15341
H          2.39840       -4.39418        1.24187
H          4.81806        0.02598        3.12268
H          6.22556       -1.01362        3.45294
H          6.47297        0.63838        2.88244
