45
-71.81628639
C          0.44640        1.82557        3.00469
P         -0.17616        0.85643        1.58835
P         -0.06975        0.74834       -1.54652
C          0.71143        1.71428       -2.88292
Cl         2.92124        0.02926        1.81720
H          0.84751        2.77174        2.65282
H         -0.01013        1.91561       -3.66937
Cl         3.00176       -0.37359       -1.44330
C         -1.40132        1.77164        0.63664
C         -1.35668        1.72035       -0.73854
C         -2.30093        2.39108       -1.48908
C         -3.29619        3.11291       -0.85401
C         -3.34495        3.15755        0.52595
C         -2.39668        2.48281        1.27470
H         -2.25670        2.34359       -2.56519
H         -4.03525        3.63745       -1.43699
H         -4.12304        3.71547        1.02041
H         -2.43040        2.50009        2.35201
Pd         1.51495        0.30589        0.09270
H          1.54303        1.15511       -3.30228
H          1.23567        1.27634        3.51006
H          1.08180        2.65680       -2.48990
C         -1.65346       -3.25144       -3.01621
C         -2.53511       -2.21517       -2.77803
C         -2.05890       -0.98971       -2.34874
C         -0.70720       -0.81088       -2.16124
C          0.17390       -1.84063       -2.39681
C         -0.29800       -3.06655       -2.82716
H         -2.02424       -4.20695       -3.34961
H         -3.59292       -2.36118       -2.92300
H         -2.73608       -0.17612       -2.14633
H          1.22617       -1.67739       -2.22661
H          0.39036       -3.87532       -3.00952
C         -1.91812       -3.20570        2.65364
C         -1.41275       -2.41114        3.66461
C         -0.87866       -1.16985        3.36790
C         -0.85639       -0.73383        2.06285
C         -1.35800       -1.52201        1.05426
C         -1.89110       -2.76366        1.34587
H         -2.33185       -4.17346        2.88572
H         -1.43192       -2.75850        4.68457
H         -0.47718       -0.54364        4.14761
H         -1.31591       -1.16468        0.04026
H         -2.27857       -3.38266        0.55350
H         -0.35651        2.02183        3.70941
