111
-148.55481307
P         -2.48008       -2.07625       -1.11254
P          0.12333       -0.37139       -0.53993
C         -1.34240       -1.68809       -2.47027
C         -0.18986       -0.98014       -2.20666
C         -3.21035       -3.76785       -1.28819
C         -2.61462       -4.73181       -0.28546
C         -1.62617       -2.08366       -3.76180
H         -2.53845       -2.61937       -3.96698
C         -0.74595       -1.77595       -4.78503
H         -0.96637       -2.08459       -5.79388
C          0.41246       -1.07217       -4.51603
H          1.09630       -0.83114       -5.31317
C          0.68967       -0.66894       -3.22205
H          1.58135       -0.10528       -2.99557
Pd        -1.34792       -1.52554        0.82063
Cl        -3.07413       -2.35972        1.98343
Cl        -0.08175       -0.94453        2.58476
C         -4.71919       -3.51037       -1.11605
C         -4.01829       -1.04884       -1.12723
H         -2.80077       -4.39379        0.73493
H         -3.04693       -5.73013       -0.38565
H         -1.53233       -4.81582       -0.41017
H         -4.98510       -3.66883       -0.06183
H         -5.30261       -4.25191       -1.68273
H         -4.17303       -0.71883       -0.09115
C         -5.10476       -2.06196       -1.53285
C         -3.87955        0.13911       -2.05425
H         -2.99354       -4.09570       -2.31279
H         -5.24069       -2.01776       -2.62225
H         -6.07608       -1.77451       -1.10231
H         -3.66067       -0.18709       -3.07270
H         -4.79649        0.73224       -2.08452
H         -3.06428        0.79275       -1.73687
C         -1.15231        3.97480       -0.07531
C         -1.09113        3.40495       -1.37344
C         -0.69075        2.08449       -1.49281
C         -0.43572        1.32276       -0.38307
C         -0.60275        1.83756        0.87462
C         -0.99528        3.14974        1.06728
O         -1.33036        5.37545        0.07847
C         -1.41350        4.20773       -2.64353
H         -0.55963        1.63413       -2.46065
H         -0.40866        1.18898        1.71109
C         -1.20514        3.65804        2.50158
C          4.41312       -0.78670        0.92112
C          3.83675        0.50063        0.77388
C          2.52969        0.58395        0.32621
C          1.82942       -0.53767       -0.03286
C          2.41376       -1.77571        0.01197
C          3.71996       -1.93105        0.44832
O          5.66578       -0.93187        1.57468
C          4.58282        1.79510        1.13335
H          2.02946        1.53491        0.27097
H          1.82455       -2.62641       -0.28495
C          4.34584       -3.33458        0.44395
C         -2.49687        5.26666       -2.36931
C         -0.13201        4.88139       -3.15691
C         -1.96183        3.28180       -3.75321
C          0.12975        4.18237        3.05249
C         -2.27369        4.76485        2.54960
C         -1.70120        2.51372        3.41585
C         -0.11398        6.11113        0.12291
H         -2.77213        5.79176       -3.28363
H         -3.39383        4.80113       -1.96214
H         -2.15319        6.01006       -1.65434
H          0.27832        5.56382       -2.41651
H          0.63155        4.13665       -3.38050
H         -0.32676        5.44922       -4.06637
H         -1.20353        2.58832       -4.11353
H         -2.81208        2.70459       -3.39177
H         -2.29566        3.86408       -4.61177
H          0.01614        4.54267        4.07456
H          0.88116        3.39315        3.05437
H          0.51227        5.00098        2.44743
H         -3.21141        4.41102        2.12244
H         -2.46541        5.08023        3.57490
H         -1.96247        5.64235        1.98861
H         -1.97740        2.89529        4.39843
H         -2.57684        2.02685        2.98739
H         -0.93262        1.75835        3.57191
H         -0.03588        6.63353        1.07618
H          0.73999        5.44303        0.00367
H         -0.10799        6.85473       -0.67391
C          5.56690       -1.11616        2.98144
C          4.33692        2.12820        2.61281
C          6.09160        1.65899        0.86087
C          4.07355        2.97620        0.27472
C          5.86595       -3.26607        0.20988
C          4.04518       -4.02724        1.78193
C          3.75466       -4.19202       -0.69826
H          3.27142        2.24635        2.80823
H          4.70548        1.33804        3.26215
H          4.83688        3.05500        2.89303
H          6.61184        2.59568        1.05947
H          6.54104        0.89379        1.48876
H          6.27042        1.38522       -0.17839
H          3.05066        3.24996        0.52986
H          4.68883        3.86187        0.43171
H          4.10877        2.72829       -0.78583
H          6.08789       -2.73823       -0.71698
H          6.36979       -2.74399        1.01928
H          6.29757       -4.26448        0.14359
H          4.46256       -3.47027        2.61716
H          2.97003       -4.10543        1.94171
H          4.46447       -5.03277        1.80449
H          2.70622       -4.42907       -0.52401
H          4.28584       -5.13963       -0.78509
H          3.83590       -3.67409       -1.65358
H          4.52182       -1.10309        3.29370
H          6.01768       -2.06888        3.25866
H          6.11010       -0.32207        3.49344
