72
-98.09844859
Fe        -0.03995        2.85594        0.01721
P          1.77918       -0.02905       -0.03699
P         -1.85722       -0.02836        0.02040
C          1.38418        1.60000        0.70096
C          0.38821        1.83333        1.73053
C          0.33643        3.26003        1.99521
C          1.31112        3.90536        1.13356
C          1.99068        2.87793        0.36211
C         -1.42943        1.60112       -0.70414
C         -2.03820        2.87977       -0.37185
C         -1.37846        3.91165       -1.15415
C         -0.37214        3.27222       -1.98175
C         -0.40822        1.84695       -1.70722
C          3.00010       -0.85947        1.07951
C          4.29952       -0.12100        0.72312
C          2.94970        0.23861       -1.45840
C          4.33896        0.29873       -0.77667
C         -3.24077       -0.73773       -0.99559
C         -4.42910        0.09764       -0.48978
C         -2.86143        0.24200        1.56340
C         -4.30074        0.43400        1.02505
H         -0.21061        1.06379        2.21577
H         -0.31565        3.75678        2.71739
H          1.53103        4.97524        1.10605
H          2.78529        3.03790       -0.36913
H         -2.84806        3.03358        0.34423
H          0.21938        1.08731       -2.17118
Cl         1.48600       -3.11251       -0.47091
Cl        -1.60860       -3.09829        0.22594
Pd        -0.03980       -1.50414       -0.06889
H          3.06537       -1.91042        0.77558
C          2.58943       -0.75742        2.54237
H          2.68611        1.20103       -1.91323
C          2.87195       -0.87055       -2.50515
H          5.17600       -0.73424        0.98357
H          4.37076        0.77341        1.35903
H          4.77459        1.30352       -0.88053
H          5.02508       -0.36464       -1.32148
H         -1.61211        4.97849       -1.13629
H          0.28776        3.77189       -2.69448
H          2.50342        0.30273        2.81469
H          3.74054       -0.79315       -3.17405
H         -3.36544       -1.78484       -0.69646
C         -3.00887       -0.64466       -2.50361
H         -2.49038        1.15731        2.03941
C         -2.76649       -0.93458        2.53407
H         -5.37948       -0.41633       -0.70264
H         -4.46478        1.02887       -1.07416
H         -4.65261        1.45767        1.22125
H         -4.97884       -0.21288        1.59899
H         -3.98099       -0.64898       -3.01614
H         -2.99421       -1.85653        1.98322
C          3.55140       -1.46840        3.48187
H          3.63311       -2.52790        3.23205
H          4.55496       -1.04416        3.41839
H          3.23193       -1.39980        4.52424
C          1.59689       -0.85477       -3.32890
H          1.49189        0.08065       -3.88181
H          1.56765       -1.67031       -4.05513
H          0.72077       -0.95742       -2.69151
C         -2.14356       -1.77122       -3.04563
H         -2.62416       -2.74087       -2.90231
H         -1.93978       -1.65854       -4.11283
H         -1.18634       -1.81922       -2.52966
C         -1.42647       -1.06153        3.23827
H         -1.39816       -1.92254        3.91001
H         -0.61576       -1.18645        2.52239
H         -1.20512       -0.17527        3.83574
H          1.57865       -1.16871        2.65949
H          2.98582       -1.83673       -1.99682
H         -2.56637        0.33253       -2.73579
H         -3.56474       -0.84331        3.28400
