72
-108.39913591
Cl         1.60785       -1.05817        2.65531
Cl        -1.08895        0.57860        2.74393
P         -1.07821        1.17663       -0.31400
P          2.25224       -0.11290       -0.33440
C          3.13778        1.54082       -0.03005
C          3.40339        1.69727        1.46893
C          4.44957        1.59375       -0.80548
C          3.41944       -1.59349       -0.08025
C          4.31490       -1.77290       -1.31177
C          1.46500       -0.46589       -2.01939
C          1.66167        0.62218       -3.05382
C         -1.14312       -0.18164       -1.52288
C          0.01776       -0.93334       -2.00126
C         -0.48773       -1.98549       -2.88409
C         -1.93070       -1.87030       -2.95690
C         -2.33373       -0.74937       -2.13045
C          2.23332        2.68174       -0.46869
H          3.84998        2.67064        1.67827
H          2.48135        1.63120        2.04634
H          4.29585        1.40589       -1.86683
H          5.16771        0.86768       -0.42890
C          4.30061       -1.43001        1.15433
H          4.82054       -0.84884       -1.58393
H          3.75933       -2.11867       -2.18205
H          2.03899       -1.33715       -2.35171
H          2.69308        0.96980       -3.09811
H          1.01586        1.47029       -2.84271
H          1.38976        0.26953       -4.05096
H          0.12920       -2.67394       -3.46488
H         -2.59311       -2.48420       -3.57152
Pd         0.44920        0.13851        1.15464
H         -3.34854       -0.36000       -2.03211
C          2.52919       -2.81856        0.08650
H          5.08400       -2.52185       -1.11579
H          3.71057       -1.19657        2.03831
H          4.84177       -2.35451        1.36096
H          5.04800       -0.65127        1.01443
H          1.99197       -2.77615        1.03226
H          1.80105       -2.89478       -0.72194
H          3.12358       -3.73429        0.09056
H          4.08904        0.94418        1.84795
H          4.91069        2.57808       -0.70977
H          2.03142        2.64955       -1.53636
H          1.28581        2.64972        0.06739
H          2.69535        3.64741       -0.25679
C         -2.65243        1.43701        0.55563
C         -3.75247        0.61422        0.56652
C         -4.71181        1.21947        1.37670
C         -4.15918        2.39259        1.82669
O         -2.89755        2.53916        1.32690
H         -3.85262       -0.32846        0.05824
H         -5.69309        0.83856        1.60825
H         -4.63811        3.10768        2.48430
C         -0.74091        2.75979       -1.10880
C         -1.12747        3.94963       -0.54474
C         -0.71774        4.96731       -1.40704
C         -0.09703        4.35302       -2.46691
O         -0.10202        2.99774       -2.29490
H         -1.66822        4.05502        0.38217
H         -0.86571        6.02607       -1.27058
H          0.33886        4.85536       -3.32158
Fe        -1.33480       -2.14300       -1.02329
C         -2.96525       -2.94020       -0.03957
C         -2.10685       -2.19874        0.86587
C         -0.79846       -2.81636        0.85940
C         -0.82421       -3.91441       -0.08688
C         -2.16330       -3.98980       -0.64385
H         -4.02498       -2.75296       -0.22643
H         -2.39267       -1.36204        1.50596
H          0.03163       -2.51267        1.49819
H          0.00059       -4.59622       -0.30503
H         -2.51657       -4.73137       -1.36386
