45
-71.81692163
C          0.56306        1.73306        3.08760
P         -0.08439        0.86250        1.61971
P         -0.17921        0.76133       -1.50858
C          0.54018        1.67106       -2.91688
Cl         3.04437        0.01731        1.62979
H          1.41320        1.19372        3.49524
H          0.96777        2.60819       -2.57206
Cl         2.89429       -0.30168       -1.62466
C         -1.33244        1.83111        0.75108
C         -1.37718        1.77981       -0.62448
C         -2.34308        2.48340       -1.31476
C         -3.26904        3.24047       -0.61890
C         -3.22758        3.28689        0.76126
C         -2.25882        2.57790        1.44957
H         -2.36919        2.43465       -2.39139
H         -4.02447        3.79149       -1.15455
H         -3.95159        3.87292        1.30310
H         -2.22348        2.59646        2.52672
Pd         1.50032        0.29410        0.02831
H         -0.22680        1.88067       -3.65685
H         -0.20777        1.80651        3.84939
H          1.32185        1.07473       -3.37884
C         -1.92832       -3.25324       -2.72488
C         -0.56561       -3.11087       -2.55095
C         -0.04372       -1.88054       -2.19749
C         -0.88371       -0.80593       -2.01875
C         -2.24182       -0.94036       -2.19732
C         -2.76751       -2.16988       -2.55086
H         -2.33783       -4.21190       -2.99850
H          0.08985       -3.95506       -2.68836
H          1.01715       -1.74381       -2.05905
H         -2.88472       -0.08817       -2.04880
H         -3.83059       -2.28210       -2.68699
C         -1.65175       -3.33355        2.39823
C         -2.13385       -2.58508        1.34284
C         -1.65937       -1.30245        1.13945
C         -0.71271       -0.77707        1.98764
C         -0.21943       -1.52296        3.03348
C         -0.69504       -2.80510        3.24323
H         -2.01792       -4.33436        2.55911
H         -2.86925       -2.99999        0.67342
H         -2.00944       -0.71070        0.31086
H          0.54443       -1.10807        3.67067
H         -0.31263       -3.39356        4.06101
H          0.88397        2.73279        2.80914
