72
-108.40426237
Cl         1.72291       -0.86682        2.70599
Cl        -0.89116        0.93106        2.78602
P         -1.11772        1.13212       -0.26448
P          2.24925       -0.12375       -0.38559
C          3.24920        1.46970       -0.13689
C          3.60721        1.61479        1.34384
C          4.51378        1.42845       -0.98712
C          3.31995       -1.67792       -0.13861
C          4.13964       -1.96688       -1.40273
C          1.44425       -0.40458       -2.06803
C          1.50796        0.76904       -3.02324
C         -1.13345       -0.19259       -1.51069
C          0.02622       -0.94207       -1.99266
C         -0.48850       -2.02016       -2.83993
C         -1.93217       -1.90548       -2.91344
C         -2.32758       -0.77939       -2.09005
C          2.39297        2.66621       -0.52791
H          2.71724        1.58670        1.97253
H          4.28280        0.83523        1.68500
H          5.19959        0.65449       -0.64655
H          5.04643        2.37903       -0.92821
C          4.26962       -1.54924        1.04824
H          3.52537       -2.36971       -2.20718
H          4.90649       -2.71545       -1.19653
H          2.04943       -1.20843       -2.49726
H          1.15330        0.48420       -4.01595
H          2.51883        1.15883       -3.13725
H          0.85712        1.57152       -2.68381
H          0.12518       -2.71262       -3.41942
H         -2.60121       -2.54348       -3.49480
Pd         0.51572        0.23079        1.17279
H         -3.34676       -0.43717       -1.89862
C          2.34520       -2.81976        0.10789
H          4.64170       -1.07511       -1.77332
H          3.74286       -1.24701        1.95094
H          4.74772       -2.50702        1.25872
H          5.06700       -0.83587        0.84800
H          1.59347       -2.86906       -0.68115
H          2.86605       -3.77889        0.13793
H          1.83908       -2.69156        1.06350
H          4.10547        2.56857        1.52500
H          4.28549        1.24266       -2.03563
H          2.15908        2.67696       -1.58923
H          1.46192        2.66615        0.03586
H          2.91010        3.60136       -0.30623
C         -2.79516        1.21894        0.41922
C         -3.24218        2.18186        1.28965
C         -4.57438        1.88765        1.57942
C         -4.88888        0.75577        0.86918
O         -3.80628        0.33525        0.15232
H         -2.66218        2.99640        1.69066
H         -5.22749        2.43914        2.23586
H         -5.84938        0.25545        0.86826
C         -0.73330        2.75083       -0.95637
C         -0.65968        3.89481       -0.20040
C         -0.34665        4.94010       -1.07042
C         -0.24257        4.38869       -2.32389
O         -0.47355        3.04368       -2.26736
H         -0.79595        3.96049        0.86699
H         -0.21195        5.97698       -0.80912
H         -0.00912        4.92698       -3.23413
Fe        -1.29666       -2.11383       -0.95655
C         -3.00596       -2.81297       -0.02790
C         -2.20094       -2.01749        0.87810
C         -0.89545       -2.63475        0.97383
C         -0.88456       -3.81229        0.12581
C         -2.18881       -3.91521       -0.50280
H         -4.04539       -2.61523       -0.29882
H         -2.52272       -1.11839        1.40715
H         -0.09690       -2.30134        1.63918
H         -0.06197       -4.52233        0.01535
H         -2.51165       -4.70511       -1.18466
