72
-98.09942605
Fe         0.00784        2.82962        0.00278
P          1.81979       -0.07112        0.09584
P         -1.85478       -0.05931        0.00202
C          1.39393        1.58311        0.75218
C          0.39495        1.86063        1.76967
C          0.37886        3.29287        2.00697
C          1.37689        3.89989        1.14593
C          2.01963        2.84269        0.38413
C         -1.43681        1.60332       -0.65048
C         -2.02525        2.86269       -0.22036
C         -1.40715        3.93145       -0.98679
C         -0.46148        3.33148       -1.91115
C         -0.49613        1.89164       -1.71956
C          3.26800       -0.71199        1.06173
C          4.46071       -0.24055        0.21377
C          2.63588        0.07050       -1.56602
C          4.11885       -0.25666       -1.29805
C         -3.20143       -0.73956       -1.08089
C         -4.41431        0.06432       -0.58347
C         -2.91107        0.14060        1.52076
C         -4.33037        0.36198        0.94256
H         -0.23867        1.12047        2.25881
H         -0.26469        3.81826        2.71570
H          1.62335        4.96289        1.10053
H          2.83225        2.96535       -0.33503
H         -2.78715        2.98192        0.55243
H          0.06452        1.15562       -2.29515
Cl         1.53713       -3.14140        0.24135
Cl        -1.54332       -3.16975       -0.15520
Pd        -0.02260       -1.51585        0.07614
H          3.20548       -1.80577        1.04997
C          3.30712       -0.20910        2.50043
H          2.51507        1.11327       -1.88244
C          1.99287       -0.87108       -2.57678
H          5.34867       -0.85616        0.42552
H          4.72925        0.78015        0.52073
H          4.77165        0.43226       -1.85446
H          4.33750       -1.25442       -1.70190
H         -1.63330        4.99678       -0.90037
H          0.14438        3.86552       -2.64716
H          4.28213       -0.45985        2.94099
H          2.13077       -1.90518       -2.23314
H         -3.32376       -1.79866       -0.82717
C         -2.92531       -0.58401       -2.57394
H         -2.55569        1.03075        2.05311
C         -2.85334       -1.07990        2.44005
H         -5.35114       -0.45701       -0.83472
H         -4.44947        1.01034       -1.14361
H         -4.67649        1.38500        1.15196
H         -5.03414       -0.28949        1.47920
H         -3.87198       -0.67385       -3.12472
H         -3.02186       -1.98066        1.83525
C          2.18943       -0.77462        3.35821
H          1.21620       -0.49107        2.96118
H          2.22161       -1.86550        3.38244
H          2.23955       -0.41788        4.38945
C          2.53974       -0.70051       -3.98607
H          3.61333       -0.89295       -4.02294
H          2.06061       -1.37891       -4.69568
H          2.38311        0.31754       -4.34776
C         -1.92594       -1.59821       -3.10480
H         -0.98965       -1.55350       -2.55138
H         -2.30375       -2.61685       -2.99841
H         -1.69585       -1.43906       -4.16068
C         -1.56296       -1.20828        3.23098
H         -1.57731       -2.07271        3.89878
H         -0.70582       -1.32912        2.57173
H         -1.38347       -0.32357        3.84469
H          3.26680        0.88797        2.49421
H          0.90862       -0.71562       -2.57719
H         -2.57782        0.43919       -2.76556
H         -3.70172       -1.03862        3.13759
