111
-148.55582228
P         -2.27467       -2.13736       -1.27788
P          0.14196       -0.21547       -0.58989
C         -1.18511       -1.56156       -2.60102
C         -0.14549       -0.70866       -2.30127
C         -2.42641       -3.97996       -1.27174
C         -1.54788       -4.59937       -0.20575
C         -1.39232       -1.97071       -3.90258
H         -2.19772       -2.65202       -4.12440
C         -0.56280       -1.50793       -4.90923
H         -0.72437       -1.82393       -5.92690
C          0.47087       -0.64136       -4.61015
H          1.11632       -0.27953       -5.39354
C          0.68133       -0.24267       -3.30215
H          1.48817        0.42816       -3.05566
Pd        -1.43377       -1.32381        0.70930
Cl        -3.26603       -2.13160        1.71842
Cl        -0.46382       -0.49008        2.54995
C         -3.93582       -4.19424       -1.06018
C         -4.05313       -1.66886       -1.51388
H         -1.82994       -4.23962        0.78555
H         -1.63674       -5.68821       -0.19816
H         -0.49633       -4.34534       -0.36053
H         -4.13317       -4.26421        0.01856
H         -4.24896       -5.16168       -1.48167
H         -4.35211       -1.17693       -0.57884
C         -4.76724       -3.02735       -1.66298
C         -4.24623       -0.74366       -2.69874
H         -2.12606       -4.31942       -2.27162
H         -4.94134       -3.21963       -2.73040
H         -5.76773       -2.98427       -1.20690
H         -3.60932        0.13977       -2.62823
H         -3.99109       -1.24856       -3.63142
H         -5.28351       -0.41079       -2.78103
C         -1.21974        4.05781        0.20130
C         -2.14054        3.09165       -0.28104
C         -1.66936        1.81715       -0.55380
C         -0.37348        1.46941       -0.27057
C          0.47494        2.35790        0.33759
C          0.07444        3.65288        0.61644
O         -1.56908        5.43397        0.21912
C         -3.62847        3.40056       -0.50814
H         -2.31489        1.06937       -0.98040
H          1.46216        2.02429        0.60107
C          1.04704        4.60073        1.33453
C          4.38729       -0.99035        0.87920
C          4.15548        0.02349       -0.08511
C          2.85501        0.23988       -0.50978
C          1.82407       -0.54913       -0.06782
C          2.06416       -1.60527        0.77183
C          3.33950       -1.87559        1.23834
O          5.65361       -1.09325        1.51405
C          5.28176        0.90667       -0.64562
H          2.62824        1.04874       -1.18214
H          1.22972       -2.20887        1.08360
C          3.55209       -3.08486        2.16188
C         -4.49098        2.17857       -0.12015
C         -4.10480        4.57246        0.36974
C         -3.85562        3.72899       -1.99112
C          0.28711        5.63844        2.18064
C          1.95911        3.81182        2.30154
C          1.92426        5.31131        0.29307
C         -1.28305        6.10749       -1.00000
H         -5.55221        2.42153       -0.16667
H         -4.32567        1.33831       -0.78981
H         -4.26485        1.85264        0.89480
H         -5.17725        4.73274        0.26180
H         -3.89504        4.37417        1.42028
H         -3.60579        5.49960        0.09992
H         -3.55838        2.89199       -2.62239
H         -4.90567        3.94390       -2.18759
H         -3.27095        4.59572       -2.29343
H         -0.37761        5.14374        2.88803
H          0.97695        6.26605        2.74425
H         -0.31697        6.29222        1.55612
H          2.56384        4.48973        2.90340
H          1.36524        3.20005        2.98013
H          2.64705        3.15883        1.76750
H          1.31961        5.90639       -0.38795
H          2.64156        5.97557        0.77441
H          2.48047        4.58713       -0.30182
H         -2.21138        6.43393       -1.46818
H         -0.67198        6.98654       -0.79468
H         -0.74874        5.44561       -1.68277
C          5.77284       -0.30872        2.69429
C          4.95904        1.34865       -2.09125
C          5.42890        2.16187        0.22784
C          6.61496        0.13861       -0.70009
C          4.96410       -3.67376        1.99186
C          3.32816       -2.65244        3.61896
C          2.54990       -4.21259        1.82354
H          4.72510        0.48746       -2.71662
H          4.11554        2.03662       -2.12445
H          5.80928        1.86473       -2.53667
H          6.22850        2.80328       -0.14185
H          4.50628        2.74113        0.22740
H          5.65602        1.90137        1.25883
H          7.39683        0.74251       -1.15996
H          6.95550       -0.13698        0.29478
H          6.50692       -0.77643       -1.28145
H          5.72973       -2.96204        2.29022
H          5.09138       -4.56870        2.60042
H          5.14497       -3.94216        0.95157
H          2.32124       -2.25733        3.75207
H          3.45430       -3.49350        4.30014
H          4.02931       -1.87450        3.91140
H          1.52810       -3.93454        2.07756
H          2.78242       -5.11759        2.38431
H          2.58590       -4.45791        0.76242
H          6.00166       -0.95500        3.54151
H          6.58946        0.40383        2.57934
H          4.84439        0.22999        2.88827
