64
-97.22205089
Cl        -1.44987       -0.40601       -2.77252
Cl         1.72902       -0.88992       -3.02039
P          1.95412       -0.66400        0.25546
C          2.16985       -2.40845        0.83545
C          3.73753       -0.18218        0.05679
P         -1.28672       -0.25350        0.37088
C          1.20839        0.40997        1.53675
C         -0.22471        0.62615        1.57754
C         -0.50913        1.60780        2.61368
C          0.76116        2.03504        3.17296
C          1.82179        1.28845        2.51954
H         -1.49875        1.94485        2.92820
H          0.89343        2.76327        3.97615
Pd         0.25582       -0.71657       -1.34708
H          2.89128        1.37277        2.72099
C         -5.15850        1.90518       -0.71028
C         -4.94464        0.59993       -1.10583
C         -3.76499       -0.03825       -0.76625
C         -2.80425        0.62796       -0.03998
C         -3.02111        1.92648        0.36133
C         -4.19751        2.56981        0.02494
H         -6.07577        2.40525       -0.97545
H         -5.69255        0.07904       -1.68080
H         -3.58380       -1.05615       -1.07304
H         -2.26804        2.43685        0.93468
H         -4.36257        3.58846        0.33571
C         -2.42782       -4.36233        1.93380
C         -2.16774       -4.18697        0.58849
C         -1.82756       -2.93452        0.11096
C         -1.74703       -1.87233        0.98150
C         -2.01239       -2.03784        2.32108
C         -2.35316       -3.28985        2.80137
H         -2.69275       -5.33812        2.30713
H         -2.23100       -5.02279       -0.08878
H         -1.63357       -2.77624       -0.93791
H         -1.94408       -1.18926        2.98347
H         -2.55853       -3.42693        3.85033
C          4.15854       -0.09247       -1.39390
H          3.86382        0.78832        0.55442
C          4.47352       -1.30083        0.82047
H          4.60500       -1.01210        1.87366
C          3.69095       -2.63929        0.74651
H          5.48878       -1.42110        0.41485
C          1.61953       -2.56777        2.23613
H          1.62591       -3.05065        0.12920
H          4.00819       -3.31929        1.55022
H          3.93831       -3.15496       -0.19276
H          1.73765       -3.59089        2.60081
H          2.13970       -1.90441        2.93004
H          0.55863       -2.31572        2.27759
H          5.22029        0.14549       -1.48815
H          3.98739       -1.04400       -1.89983
H          3.59734        0.67018       -1.93540
Fe         0.69250        2.32667        1.12904
C          1.15823        4.26956        0.57383
C         -0.18069        3.90231        0.14489
C         -0.08320        2.75310       -0.73754
C          1.31367        2.37564       -0.81178
C          2.07853        3.30063        0.00360
H          1.42254        5.10945        1.21997
H         -1.09516        4.45246        0.37815
H         -0.90150        2.26298       -1.26902
H          1.71446        1.57718       -1.43801
H          3.16481        3.30280        0.12129
