171
-217.84663862
P         -1.58975        0.41187       -0.35800
P          1.61322       -0.32727       -0.26734
C         -0.83096        1.44825       -1.61776
C          0.97039       -1.22415       -1.68451
C          0.01565        0.90643       -2.57891
C          0.67162        1.77578       -3.47180
C          0.42995        3.13712       -3.39306
C         -0.43400        3.65235       -2.45039
C         -1.05641        2.80216       -1.55809
C          1.19232       -2.57735       -1.75993
C          0.67402       -3.30850       -2.81071
C         -0.07776       -2.67539       -3.77778
C         -0.31464       -1.31200       -3.71939
C          0.23052       -0.56382       -2.65823
Cl         1.43341        0.25612        3.01311
Cl        -1.70487       -0.32222        2.82188
C         -1.11878       -0.65964       -4.78912
C          1.62305        1.26369       -4.49616
H         -0.61842        4.71318       -2.40441
H         -1.72292        3.19866       -0.80980
H          1.77597       -3.06435       -0.99570
H          0.85677       -4.36868       -2.87439
H          0.93233        3.79667       -4.08052
H         -0.49056       -3.24257       -4.59497
C         -3.60016       -3.37426       -1.80179
C         -2.70686       -3.44909       -0.74012
C         -2.07868       -2.27795       -0.33963
C         -2.33706       -1.09222       -0.98101
C         -3.22615       -1.03250       -2.02604
C         -3.88157       -2.18086       -2.45598
H         -4.10933       -4.26351       -2.12227
H         -1.39875       -2.28553        0.49493
H         -3.41465       -0.07862       -2.48850
C         -4.68129        2.69366        2.05406
C         -3.34390        3.05290        2.17506
C         -2.41543        2.36596        1.40431
C         -2.81229        1.34764        0.57395
C         -4.13559        0.99565        0.47937
C         -5.10185        1.66959        1.21460
H         -5.42035        3.21425        2.63334
H         -1.36908        2.61293        1.46598
H         -4.40738        0.17932       -0.16543
C          4.29307       -2.98161        2.25573
C          2.92952       -3.24771        2.22142
C          2.13462       -2.44314        1.41556
C          2.67970       -1.39481        0.71650
C          4.02468       -1.13021        0.78569
C          4.86364       -1.92829        1.55218
H          4.93391       -3.60654        2.84860
H          1.07618       -2.62148        1.33994
H          4.41441       -0.28891        0.24174
C          3.88633        3.43930       -1.30778
C          2.83494        3.51822       -0.40362
C          2.14713        2.34892       -0.10609
C          2.48916        1.16803       -0.71609
C          3.51829        1.10944       -1.62361
C          4.24645        2.25246       -1.93385
H          4.45571        4.32644       -1.51513
H          1.34446        2.34674        0.61053
H          3.75321        0.16101       -2.07613
Pd        -0.04251       -0.00333        1.34056
C         -2.74607       -4.55706        1.50830
C         -2.41789       -4.75333        0.01570
C         -0.93095       -5.11152       -0.14674
C         -3.26390       -5.92466       -0.51880
H         -2.14495       -3.76232        1.94753
H         -3.79459       -4.29051        1.63910
H         -2.55588       -5.46935        2.07333
H         -0.68399       -6.01655        0.40787
H         -0.69019       -5.28217       -1.19532
H         -0.29192       -4.30800        0.21517
H         -4.32903       -5.71658       -0.41877
H         -3.04580       -6.11946       -1.56869
H         -3.05224       -6.83855        0.03620
C         -6.30012       -2.56170       -2.98131
C         -4.93645       -2.15681       -3.57153
C         -4.53976       -3.15024       -4.67978
C         -5.07479       -0.75399       -4.19455
H         -6.26810       -3.56840       -2.56615
H         -6.59157       -1.88050       -2.18239
H         -7.07794       -2.53956       -3.74440
H         -3.55857       -2.90825       -5.08548
H         -4.50102       -4.17143       -4.30284
H         -5.25811       -3.12663       -5.49907
H         -5.39459       -0.02415       -3.45105
H         -4.13163       -0.41818       -4.62344
H         -5.81747       -0.75689       -4.99226
C         -3.99050        4.63752        4.05894
C         -2.86848        4.17397        3.10975
C         -2.41231        5.37183        2.25965
C         -1.69278        3.66543        3.96858
H         -4.37021        3.80416        4.64988
H         -3.62298        5.39535        4.75076
H         -4.82031        5.07630        3.50549
H         -2.04366        6.18162        2.88902
H         -1.61418        5.08452        1.57728
H         -3.23785        5.75626        1.66093
H         -1.98201        2.77546        4.52701
H         -0.82964        3.40826        3.35672
H         -1.37443        4.42450        4.68276
C         -7.40307        2.52783        0.69886
C         -6.58921        1.29684        1.13846
C         -7.06351        0.82616        2.52521
C         -6.83858        0.16201        0.12470
H         -8.46203        2.28470        0.61313
H         -7.30630        3.34402        1.41374
H         -7.06021        2.88912       -0.27054
H         -8.11341        0.53477        2.50086
H         -6.48156       -0.03286        2.85870
H         -6.95257        1.61393        3.26944
H         -6.30433       -0.74424        0.40970
H         -7.89896       -0.08434        0.07211
H         -6.51739        0.45334       -0.87519
C          2.27577       -5.65413        2.08279
C          2.31570       -4.42080        2.99942
C          0.88433       -4.07323        3.45991
C          3.14750       -4.74670        4.25639
H          3.28169       -5.94024        1.77608
H          1.82036       -6.50486        2.58938
H          1.70053       -5.44806        1.18103
H          0.87472       -3.13806        4.01958
H          0.20554       -3.96966        2.61574
H          0.48152       -4.85537        4.10310
H          4.13327       -5.13010        3.99622
H          3.27600       -3.85915        4.87571
H          2.65441       -5.50839        4.86028
C          7.14006       -2.91524        1.17676
C          6.37324       -1.66649        1.64968
C          6.73840       -1.35294        3.11190
C          6.79988       -0.47303        0.77199
H          8.21652       -2.74857        1.21276
H          6.91642       -3.77908        1.80153
H          6.87140       -3.16551        0.15058
H          6.18686       -0.48263        3.46704
H          6.49983       -2.18976        3.76730
H          7.80311       -1.14289        3.21220
H          6.56373       -0.65504       -0.27626
H          6.30067        0.44361        1.08577
H          7.87416       -0.30375        0.84375
C          2.28448        5.93640       -0.80933
C          2.49445        4.85525        0.26769
C          3.65363        5.26175        1.19403
C          1.20492        4.75123        1.10452
H          1.49737        5.64118       -1.50207
H          1.99725        6.88567       -0.35744
H          3.19203        6.10639       -1.38695
H          3.82098        4.50107        1.95640
H          4.58031        5.38306        0.63395
H          3.43940        6.20428        1.69754
H          0.94543        5.71648        1.53899
H          0.36899        4.42752        0.48534
H          1.32307        4.04370        1.92482
C          5.30677        3.30370       -3.96255
C          5.45934        2.22259       -2.87515
C          5.60646        0.85331       -3.56727
C          6.73270        2.49716       -2.05476
H          4.39227        3.15477       -4.53470
H          5.27109        4.30263       -3.53009
H          6.14547        3.27568       -4.65802
H          5.78049        0.06099       -2.83963
H          4.71374        0.60511       -4.14053
H          6.45167        0.85674       -4.25540
H          6.85631        1.74874       -1.27276
H          7.61897        2.47308       -2.68856
H          6.68887        3.47503       -1.57623
H         -1.56125        0.27440       -4.44010
H          1.18356        1.30720       -5.49361
H         -1.93124       -1.30793       -5.11708
H         -0.50072       -0.43684       -5.65975
H          1.91013        0.23053       -4.29638
H          2.53489        1.86054       -4.50713
