45
-71.82082508
C          0.34219        1.49485        3.17707
P         -0.17991        0.77874        1.58390
P         -0.12713        0.78811       -1.56969
C          0.48533        1.53075       -3.11758
Cl         2.94780        0.06041        1.70301
H         -0.50070        1.54156        3.86059
H          1.27594        0.91206       -3.53262
Cl         2.99179       -0.15383       -1.53581
C         -1.33618        1.83149        0.67956
C         -1.31141        1.83710       -0.69890
C         -2.21705        2.60077       -1.40640
C         -3.14678        3.36829       -0.72732
C         -3.17179        3.36258        0.65382
C         -2.26703        2.58956        1.35986
H         -2.19711        2.58668       -2.48408
H         -3.85430        3.96701       -1.27702
H         -3.89873        3.95698        1.18248
H         -2.28585        2.56738        2.43738
Pd         1.49405        0.42748        0.03135
H          0.88045        2.52324       -2.92058
H          0.73206        2.49676        3.02181
H         -0.32105        1.60482       -3.84153
C         -1.77588       -3.42104       -2.01582
C         -2.64487       -2.35555       -1.88256
C         -2.14694       -1.07019       -1.76630
C         -0.78747       -0.86253       -1.79001
C          0.08213       -1.91993       -1.92327
C         -0.41174       -3.20608       -2.03659
H         -2.16329       -4.42320       -2.10019
H         -3.70884       -2.52496       -1.86048
H         -2.81025       -0.22928       -1.64297
H          1.14359       -1.72842       -1.91933
H          0.26683       -4.03739       -2.13447
C         -1.74984       -3.47453        1.84647
C         -0.40137       -3.22241        2.00722
C          0.06554       -1.92232        1.95003
C         -0.81625       -0.88876        1.73444
C         -2.15967       -1.13322        1.57020
C         -2.63040       -2.43258        1.62927
H         -2.11554       -4.48756        1.88618
H          0.28674       -4.03557        2.16965
H          1.11681       -1.70151        2.04913
H         -2.83003       -0.31006        1.38216
H         -3.68116       -2.63117        1.49639
H          1.12001        0.87831        3.61853
