72
-98.09954413
Fe         0.00107        2.83993        0.02718
P          1.81941       -0.06783        0.07480
P         -1.84678       -0.06236        0.02778
C          1.39648        1.57461        0.76184
C          0.38333        1.83768        1.76857
C          0.35196        3.26874        2.01502
C          1.36231        3.89331        1.18076
C          2.00083        2.84665        0.40044
C         -1.43508        1.59265       -0.65404
C         -2.01982        2.85899       -0.23961
C         -1.41032        3.91988       -1.02346
C         -0.45742        3.31146       -1.93300
C         -0.47943        1.87667       -1.71000
C          3.24079       -0.75937        1.04321
C          4.45342       -0.28276        0.22683
C          2.65977        0.10069       -1.57328
C          4.13577       -0.24680       -1.29032
C         -3.16872       -0.78324       -1.05939
C         -4.39303        0.03555       -0.61627
C         -2.93690        0.18414        1.51785
C         -4.34000        0.39581        0.89831
H         -0.25342        1.08955        2.24095
H         -0.30122        3.78163        2.72465
H          1.60118        4.95854        1.14655
H          2.81563        2.98249       -0.31406
H         -2.78664        2.98805        0.52677
H          0.09088        1.13700       -2.26968
Cl         1.57734       -3.10466       -0.19304
Cl        -1.60790       -3.09854        0.27615
Pd        -0.00821       -1.52448        0.06682
H          3.15751       -1.85130        0.99899
C          3.26478       -0.29680        2.49568
H          2.55297        1.15198       -1.86560
C          2.02889       -0.80837       -2.62203
H          5.32791       -0.91919        0.43306
H          4.73376        0.72356        0.56892
H          4.80304        0.45447       -1.81312
H          4.35400       -1.23248       -1.72303
H         -1.64288        4.98490       -0.95385
H          0.15190        3.83655       -2.67205
H          4.22874       -0.57444        2.94434
H          2.17421       -1.85296       -2.31654
H         -3.29447       -1.83305       -0.77095
C         -2.86238       -0.68166       -2.55168
H         -2.58631        1.08907        2.02815
C         -2.91742       -0.99952        2.48385
H         -5.32339       -0.49898       -0.86372
H         -4.42076        0.95795       -1.21495
H         -4.67949        1.43009        1.05706
H         -5.06282       -0.22522        1.44580
H         -3.79970       -0.78486       -3.11598
H         -3.14068       -1.91377        1.91890
C          2.12501       -0.86833        3.31953
H          2.16146       -0.53809        4.36013
H          1.16311       -0.56150        2.91241
H          2.14219       -1.95983        3.31695
C          2.58449       -0.58241       -4.01991
H          3.66041       -0.76195       -4.05456
H          2.11838       -1.24043       -4.75686
H          2.41957        0.44605       -4.34683
C         -1.86144       -1.72046       -3.03049
H         -0.92385       -1.64866       -2.48221
H         -2.23929       -2.73284       -2.87560
H         -1.63116       -1.61266       -4.09282
C         -1.61794       -1.16071        3.25229
H         -1.66003       -1.99562        3.95556
H         -0.78529       -1.35353        2.57843
H         -1.37989       -0.26238        3.82477
H          3.24066        0.80057        2.51884
H          0.94296       -0.66523       -2.62485
H         -2.50463        0.33202       -2.77264
H         -3.74889       -0.89070        3.19426
