111
-148.55595448
P         -1.65503       -2.77315       -0.07067
P         -0.48377        0.12254       -0.56867
C         -1.62427       -2.08815       -1.75136
C         -1.17438       -0.80038       -1.95649
C         -0.52315       -4.22555        0.09010
C          0.63346       -3.90132        1.01199
C         -2.02508       -2.85537       -2.82615
H         -2.34368       -3.87214       -2.66391
C         -1.99494       -2.32111       -4.10283
H         -2.31112       -2.91854       -4.94233
C         -1.55500       -1.02648       -4.30340
H         -1.52668       -0.61319       -5.29817
C         -1.13397       -0.26619       -3.22699
H         -0.75802        0.73500       -3.36819
Pd        -1.34877       -0.94818        1.28903
Cl        -1.74528       -2.12477        3.15277
Cl        -0.97072        0.97680        2.40064
C         -1.44965       -5.34340        0.61053
C         -3.26454       -3.55684        0.39641
H          0.26938       -3.61492        2.00070
H          1.29759       -4.75963        1.13776
H          1.22686       -3.06801        0.63097
H         -1.32103       -5.42720        1.69840
H         -1.14047       -6.31772        0.20292
H         -3.43308       -3.28070        1.44613
C         -2.94584       -5.05915        0.29238
C         -4.41480       -3.08269       -0.46601
H         -0.17024       -4.45261       -0.92436
H         -3.17895       -5.40239       -0.72499
H         -3.60629       -5.63694        0.95704
H         -5.35836       -3.53776       -0.15631
H         -4.52814       -1.99743       -0.41253
H         -4.25489       -3.34312       -1.51275
C         -0.85396        4.65522       -0.73268
C          0.42095        4.04756       -0.86169
C          0.49592        2.66596       -0.80869
C         -0.63450        1.89866       -0.70271
C         -1.87653        2.47576       -0.67879
C         -2.02390        3.85272       -0.73120
O         -0.95518        6.06263       -0.56979
C          1.71671        4.86030       -1.01102
H          1.44877        2.16650       -0.82970
H         -2.73464        1.83037       -0.59885
C         -3.43915        4.45162       -0.74050
C          3.72013       -1.41056        0.26090
C          3.13447       -0.44599        1.12359
C          1.85610       -0.00203        0.83425
C          1.20563       -0.40675       -0.30044
C          1.81275       -1.24374       -1.19919
C          3.08812       -1.73223       -0.97008
O          4.88108       -2.11513        0.67113
C          3.82482        0.13616        2.36736
H          1.32720        0.63628        1.52187
H          1.26684       -1.53665       -2.07933
C          3.72988       -2.60195       -2.06347
C          1.46814        6.15897       -1.79929
C          2.27768        5.18336        0.38225
C          2.78055        4.05541       -1.79229
C         -3.47810        5.77778       -1.52152
C         -4.43278        3.49316       -1.43575
C         -3.90460        4.67305        0.70684
C         -0.92337        6.49361        0.78520
H          0.78483        6.81936       -1.27130
H          2.39763        6.70524       -1.95778
H          1.03348        5.93891       -2.77378
H          1.57595        5.77664        0.96301
H          2.47592        4.26788        0.93876
H          3.21011        5.74237        0.30808
H          3.13580        3.19734       -1.22340
H          2.37782        3.69755       -2.73948
H          3.65006        4.67479       -2.01125
H         -4.49377        6.16823       -1.58015
H         -2.86165        6.53708       -1.04726
H         -3.11010        5.63567       -2.53706
H         -5.40624        3.96756       -1.55804
H         -4.07159        3.21070       -2.42430
H         -4.59123        2.58550       -0.85541
H         -3.24611        5.36001        1.23259
H         -4.91292        5.08524        0.73456
H         -3.90818        3.73286        1.25785
H         -0.80971        5.63888        1.45331
H         -0.09155        7.18275        0.93003
H         -1.84634        7.02178        1.02364
C          4.57964       -3.28337        1.41701
C          5.33436       -0.15783        2.39264
C          3.66248        1.67259        2.36614
C          3.16563       -0.43920        3.63232
C          5.24644       -2.76774       -1.86428
C          3.05610       -3.98425       -2.07658
C          3.52681       -1.92975       -3.43952
H          5.80713        0.18012        1.47115
H          5.81872        0.34608        3.22872
H          5.52664       -1.22314        2.49482
H          4.19950        2.12112        3.20145
H          4.05708        2.09936        1.44445
H          2.61866        1.96903        2.45477
H          3.27299       -1.52135        3.67467
H          3.61785       -0.02153        4.53135
H          2.10050       -0.21075        3.65572
H          5.69589       -3.30509       -2.69904
H          5.73178       -1.79567       -1.78440
H          5.46725       -3.32573       -0.95757
H          3.18044       -4.49275       -1.12255
H          1.98730       -3.89392       -2.26797
H          3.48299       -4.61825       -2.85319
H          2.47460       -1.87873       -3.71449
H          4.03957       -2.48692       -4.22318
H          3.92370       -0.91498       -3.43373
H          3.93210       -3.03514        2.25647
H          4.07126       -4.01016        0.78594
H          5.50579       -3.71983        1.79146
