111
-148.55571726
P         -2.25198       -2.12743       -1.35133
P          0.14194       -0.19579       -0.60538
C         -1.16512       -1.50375       -2.65528
C         -0.13583       -0.64765       -2.32961
C         -2.37793       -3.97124       -1.38702
C         -1.48282       -4.60302       -0.34230
C         -1.36321       -1.88064       -3.96793
H         -2.15961       -2.56541       -4.21053
C         -0.53574       -1.38194       -4.95902
H         -0.69053       -1.67260       -5.98527
C          0.48723       -0.51217       -4.63352
H          1.13097       -0.12241       -5.40482
C          0.68918       -0.14616       -3.31463
H          1.48784        0.52650       -3.04695
Pd        -1.43618       -1.34103        0.65614
Cl        -3.22393       -2.25278        1.65499
Cl        -0.48459       -0.51948        2.51286
C         -3.88285       -4.21043       -1.17013
C         -4.03664       -1.67795       -1.57584
H         -1.55691       -5.69286       -0.35925
H         -0.43606       -4.33112       -0.49914
H         -1.76173       -4.27017        0.65920
H         -4.07195       -4.30462       -0.09174
H         -4.18556       -5.17352       -1.60889
H         -4.33923       -1.20345       -0.63291
C         -4.73406       -3.04312       -1.74429
C         -4.24334       -0.73758       -2.74624
H         -2.08056       -4.28304       -2.39676
H         -4.91453       -3.21792       -2.81366
H         -5.73122       -3.02172       -1.27950
H         -3.98513       -1.22574       -3.68697
H         -5.28449       -0.41513       -2.82092
H         -3.61598        0.15168       -2.66406
C         -1.23121        4.05076        0.29854
C         -2.13859        3.10886       -0.25261
C         -1.66326        1.84329       -0.55810
C         -0.37924        1.47850       -0.24421
C          0.45045        2.33756        0.42865
C          0.04538        3.62263        0.74413
O         -1.57222        5.42790        0.35504
C         -3.61717        3.43115       -0.51869
H         -2.29644        1.11638       -1.03638
H          1.42585        1.98783        0.71463
C          0.99274        4.53548        1.53745
C          4.37457       -0.98448        0.88794
C          4.14560        0.06079       -0.04299
C          2.84910        0.27825       -0.47909
C          1.82096       -0.53683       -0.08007
C          2.06043       -1.62053        0.72378
C          3.33210       -1.89429        1.19824
O          5.63129       -1.09401        1.54041
C          5.26905        0.97808       -0.55178
H          2.62218        1.10893       -1.12437
H          1.22808       -2.24320        1.00209
C          3.54455       -3.13419        2.08014
C         -4.49617        2.20698       -0.17749
C         -4.11535        4.59040        0.36373
C         -3.79692        3.78625       -2.00209
C          0.20244        5.53213        2.40479
C          1.87327        3.70199        2.49634
C          1.90365        5.29466        0.56128
C         -1.23340        6.14334       -0.82594
H         -5.55444        2.45422       -0.25710
H         -4.31017        1.37471       -0.85171
H         -4.30590        1.86688        0.84015
H         -3.93779        4.37415        1.41666
H         -3.60519        5.51977        0.12436
H         -5.18350        4.75682        0.22646
H         -3.19611        4.65287       -2.27170
H         -3.48763        2.95743       -2.63839
H         -4.83878        4.01345       -2.22635
H         -0.38255        6.21304        1.79106
H         -0.48389        5.00454        3.06629
H          0.87156        6.13400        3.01916
H          2.58084        3.07614        1.95537
H          2.45530        4.35084        3.15037
H          1.25820        3.05781        3.12418
H          1.32249        5.92939       -0.10414
H          2.60945        5.92794        1.09819
H          2.47382        4.59960       -0.05470
H         -0.67075        7.03804       -0.55877
H         -0.63099        5.51949       -1.48745
H         -2.14028        6.44772       -1.34776
C          5.71921       -0.35126        2.75010
C          6.61353        0.23029       -0.61021
C          4.96478        1.46738       -1.98610
C          5.38380        2.20278        0.36862
C          2.56544       -4.26191        1.67992
C          4.96787       -3.69706        1.91658
C          3.28633       -2.75948        3.54749
H          6.94066       -0.07657        0.38000
H          6.52831       -0.66447       -1.22592
H          7.39472        0.86083       -1.03409
H          5.81519        2.01036       -2.39795
H          4.75347        0.62614       -2.64576
H          4.11244        2.14477       -2.00948
H          5.60070        1.90840        1.39269
H          6.17807        2.86961        0.03411
H          4.45202        2.76714        0.37582
H          2.79967       -5.18402        2.21131
H          1.53489       -4.00744        1.92307
H          2.62600       -4.46681        0.61137
H          5.17291       -3.92348        0.87080
H          5.71726       -2.98684        2.25675
H          5.09599       -4.61255        2.49359
H          2.27096       -2.38481        3.67547
H          3.96941       -1.98226        3.88175
H          3.41290       -3.62317        4.19966
H          4.78183        0.17177        2.94414
H          5.93710       -1.02526        3.57838
H          6.53095        0.37234        2.67720
