64
-97.22049645
Cl        -1.38652       -0.51784       -2.78562
Cl         1.81092       -0.81000       -2.97704
P          1.96029       -0.69252        0.31275
C          2.07003       -2.44341        0.91673
C          3.77529       -0.36357        0.07208
P         -1.25632       -0.26279        0.38636
C          1.23122        0.44555        1.54305
C         -0.20596        0.63243        1.59551
C         -0.50406        1.61642        2.62615
C          0.76349        2.09711        3.14720
C          1.83493        1.36995        2.48812
H         -1.49662        1.93053        2.95354
H          0.88853        2.84437        3.93416
Pd         0.30313       -0.72754       -1.32676
H          2.90497        1.48768        2.67016
C         -5.13287        1.86097       -0.75449
C         -4.87230        0.57956       -1.19687
C         -3.69085       -0.04552       -0.83970
C         -2.77322        0.61018       -0.05074
C         -3.03889        1.88350        0.39952
C         -4.21707        2.51399        0.04580
H         -6.05158        2.35101       -1.03306
H         -5.58532        0.06692       -1.82146
H         -3.47454       -1.04547       -1.18112
H         -2.32196        2.38530        1.02407
H         -4.41910        3.51358        0.39437
C         -2.48748       -4.33764        1.96931
C         -2.15622       -4.19090        0.63628
C         -1.78601       -2.94968        0.15189
C         -1.74432       -1.87052        1.00415
C         -2.08422       -2.00669        2.33022
C         -2.45532       -3.24749        2.81726
H         -2.77592       -5.30467        2.34798
H         -2.18830       -5.04008       -0.02641
H         -1.54117       -2.81279       -0.88925
H         -2.05026       -1.14416        2.97714
H         -2.71766       -3.36199        3.85617
C          4.12229        0.49578       -1.12412
H          4.10767        0.12198        0.99913
C          4.36319       -1.78249       -0.01077
H          5.43054       -1.77161        0.25814
C          3.57395       -2.77422        0.88071
H          4.32557       -2.11750       -1.05671
C          1.46404       -2.56939        2.29759
H          1.51947       -3.05112        0.18628
H          3.96905       -2.73426        1.90471
H          3.73104       -3.81099        0.54807
H          1.52417       -3.59477        2.66969
H          1.98665       -1.92502        3.00735
H          0.41571       -2.26993        2.30136
H          5.20386        0.57208       -1.25318
H          3.71489        0.06972       -2.04043
H          3.73304        1.50803       -1.02333
Fe         0.69080        2.37233        1.11532
C          1.07683        4.29605        0.56708
C         -0.26674        3.91283        0.16843
C         -0.15716        2.75562       -0.70167
C          1.24810        2.44023       -0.86092
C          2.01441        3.39081       -0.07575
H          1.33870        5.14155        1.20764
H         -1.19014        4.42465        0.44909
H         -0.97799        2.24346       -1.20794
H          1.64080        1.65905       -1.51480
H          3.10275        3.44258        0.00023
