64
-97.22377104
Cl        -1.26248       -0.27008       -2.84754
Cl         1.88582       -0.77905       -2.89111
P          1.98376       -0.66599        0.31874
C          2.10960       -2.41748        0.91628
C          3.79811       -0.30277        0.12445
P         -1.28104       -0.31173        0.38388
C          1.20542        0.45924        1.53671
C         -0.23945        0.59417        1.59382
C         -0.54279        1.60090        2.59984
C          0.71483        2.07418        3.15169
C          1.80012        1.33614        2.53189
H         -1.53921        1.91224        2.91886
H          0.82236        2.81736        3.94467
Pd         0.30624       -0.70395       -1.30209
H          2.86634        1.45301        2.73213
C         -5.13968        1.76352       -0.88426
C         -4.84009        0.49204       -1.33091
C         -3.66414       -0.11874       -0.93261
C         -2.79204        0.54244       -0.09802
C         -3.09550        1.80586        0.35538
C         -4.26853        2.42153       -0.03927
H         -6.05409        2.24223       -1.19484
H         -5.51810       -0.02385       -1.99079
H         -3.41594       -1.11048       -1.27700
H         -2.41203        2.31109        1.01374
H         -4.50109        3.41353        0.31192
C         -2.47225       -4.38266        2.00600
C         -2.07565       -4.26092        0.68841
C         -1.71825       -3.02196        0.18824
C         -1.75611       -1.91934        1.01034
C         -2.15803       -2.03163        2.32130
C         -2.51659       -3.27010        2.82358
H         -2.75063       -5.34796        2.39643
H         -2.04549       -5.12851        0.04989
H         -1.41626       -2.90874       -0.84063
H         -2.18183       -1.15185        2.94520
H         -2.82849       -3.36523        3.85069
C          4.16064        0.56879       -1.05834
H          4.09822        0.18454        1.06147
C          4.41348       -1.71053        0.05271
H          5.47350       -1.68133        0.34799
C          3.62006       -2.71836        0.92244
H          4.40754       -2.04335       -0.99458
C          1.46416       -2.56377        2.27732
H          1.59341       -3.03115        0.16598
H          3.98562       -2.67069        1.95703
H          3.80700       -3.75168        0.59446
H          0.40971       -2.28703        2.25062
H          1.53497       -3.58965        2.64613
H          1.95089       -1.91238        3.00592
H          5.24369        0.66412       -1.15933
H          3.78411        0.14090       -1.98694
H          3.75180        1.57393       -0.96231
Fe         0.64356        2.31693        1.09070
C          1.93868        3.40497       -0.03355
C          0.95609        4.28815        0.57147
C         -0.36035        3.85048        0.14149
C         -0.18938        2.70573       -0.73437
C          1.22970        2.43638       -0.85078
H          3.02235        3.49068        0.07512
H          1.17011        5.13869        1.22254
H         -1.30794        4.33098        0.39453
H         -0.97681        2.16555       -1.26410
H          1.66688        1.66818       -1.49207
