111
-148.56039712
P         -2.44283       -2.31960       -0.44246
P         -0.02518       -0.28260       -0.48666
C         -1.59000       -1.97782       -2.00213
C         -0.53642       -1.09100       -2.01483
C         -2.81749       -4.12079       -0.25312
C         -1.89382       -4.76659        0.75664
C         -1.99369       -2.58691       -3.17293
H         -2.82716       -3.27015       -3.15794
C         -1.33210       -2.30858       -4.35660
H         -1.64515       -2.78416       -5.27171
C         -0.27350       -1.42051       -4.36670
H          0.24128       -1.20313       -5.28807
C          0.12370       -0.80708       -3.19204
H          0.94615       -0.10916       -3.18367
Pd        -1.24558       -1.26661        1.22197
Cl        -2.67196       -2.14626        2.71239
Cl        -0.01085       -0.14351        2.71990
C         -4.30554       -4.11999        0.14405
C         -4.15448       -1.61840       -0.38814
H         -2.11573       -5.82936        0.87869
H         -0.84759       -4.66978        0.45633
H         -1.99820       -4.29389        1.73459
H         -4.37680       -4.12302        1.24052
H         -4.79182       -5.05041       -0.18658
H         -4.24200       -1.10858        0.58057
C         -5.04734       -2.87333       -0.41759
C         -4.38708       -0.65215       -1.53035
H         -2.68555       -4.57359       -1.24415
H         -5.35237       -3.06627       -1.45525
H         -5.98164       -2.69089        0.13475
H         -5.38973       -0.21991       -1.49122
H         -3.66224        0.16510       -1.51312
H         -4.28226       -1.15731       -2.49214
C         -1.08802        4.14675       -0.47265
C          0.02085        3.68830       -1.23310
C          0.32423        2.33680       -1.19909
C         -0.47470        1.44953       -0.52570
C         -1.62794        1.86910        0.08554
C         -1.98225        3.20744        0.10539
O         -1.25302        5.53316       -0.22160
C          0.89267        4.59944       -2.11410
H          1.20422        1.96264       -1.69501
H         -2.25020        1.13975        0.57404
C         -3.31594        3.58884        0.76957
C          4.39095       -0.90039        0.45298
C          3.70629        0.23154        0.96885
C          2.36297        0.37729        0.66565
C          1.72166       -0.50346       -0.16481
C          2.40637       -1.53299       -0.75637
C          3.75479       -1.73143       -0.50778
O          5.67170       -1.24585        0.95555
C          4.35977        1.30851        1.85105
H          1.78914        1.17821        1.10101
H          1.87073       -2.19181       -1.41843
C          4.47848       -2.83010       -1.30498
C          0.25999        5.98448       -2.33443
C          2.27784        4.76482       -1.46824
C          1.05846        3.95276       -3.50707
C         -4.42695        2.62827        0.29096
C         -3.17508        3.46929        2.29624
C         -3.76537        5.01366        0.40234
C         -0.54404        5.96966        0.92624
H          0.84329        6.57516       -3.04043
H         -0.75168        5.88676       -2.72666
H          0.20418        6.54510       -1.40442
H          2.77238        3.80039       -1.36065
H          2.91802        5.40282       -2.07697
H          2.20069        5.21231       -0.47905
H          1.59814        3.00874       -3.45347
H          0.08591        3.75919       -3.95874
H          1.61568        4.60812       -4.17602
H         -4.25177        1.60792        0.62722
H         -5.39802        2.93319        0.68016
H         -4.48823        2.62250       -0.79689
H         -2.41257        4.14675        2.67534
H         -4.11440        3.70814        2.79415
H         -2.89104        2.45704        2.58262
H         -4.75397        5.23036        0.80639
H         -3.07842        5.75797        0.79807
H         -3.80503        5.13716       -0.67934
H          0.51752        5.75434        0.81495
H         -0.68386        7.04390        1.04855
H         -0.91448        5.45571        1.81162
C          5.60519       -2.10592        2.08102
C          5.89617        1.23154        1.83457
C          3.97431        2.70788        1.32288
C          3.85217        1.15698        3.29486
C          6.00948       -2.69953       -1.22464
C          4.05137       -4.21039       -0.77924
C          4.09475       -2.71730       -2.79751
H          6.33695        2.06229        2.38515
H          6.25018        0.31045        2.29113
H          6.27153        1.26324        0.81232
H          4.46898        3.49015        1.89802
H          4.27337        2.81792        0.28116
H          2.90234        2.88661        1.38804
H          2.76714        1.24632        3.33776
H          4.11992        0.18517        3.70515
H          4.27847        1.92397        3.94081
H          6.36723       -2.86724       -0.21157
H          6.50031       -3.42625       -1.87159
H          6.32668       -1.70304       -1.53001
H          4.32084       -4.33368        0.26787
H          2.97297       -4.34214       -0.86230
H          4.53148       -5.00818       -1.34535
H          3.03659       -2.91484       -2.96054
H          4.65428       -3.43442       -3.39763
H          4.31349       -1.71921       -3.17611
H          5.03528       -1.63314        2.87936
H          5.11764       -3.04055        1.80931
H          6.61529       -2.31568        2.43351
