111
-148.55499188
P         -1.72537       -2.82140       -0.21753
P         -0.45714        0.10222       -0.55358
C         -1.51722       -2.08619       -1.86686
C         -1.03845       -0.79892       -2.00406
C         -0.61150       -4.27991       -0.00048
C          0.40982       -4.00587        1.08365
C         -1.81481       -2.82943       -2.99106
H         -2.15277       -3.84692       -2.88113
C         -1.65709       -2.27317       -4.24883
H         -1.89396       -2.85298       -5.12596
C         -1.19149       -0.97917       -4.38161
H         -1.06366       -0.54799       -5.36086
C         -0.87110       -0.24331       -3.25491
H         -0.47391        0.75596       -3.34090
Pd        -1.41553       -1.03352        1.19865
Cl        -2.70288       -2.03192        2.74326
Cl        -1.05062        0.74952        2.52356
C         -1.58510       -5.43098        0.32646
C         -3.37203       -3.62974        0.02579
H          1.06428       -4.86599        1.24399
H          1.03565       -3.14554        0.83616
H         -0.08574       -3.78458        2.03127
H         -1.58262       -5.59438        1.41285
H         -1.22429       -6.37363       -0.11192
H         -3.65450       -3.42673        1.06697
C         -3.03660       -5.12273       -0.14123
C         -4.42939       -3.09681       -0.91733
H         -0.12714       -4.44207       -0.97229
H         -3.15134       -5.39759       -1.19872
H         -3.76559       -5.74155        0.40423
H         -4.55243       -2.01735       -0.80315
H         -4.16227       -3.28681       -1.95722
H         -5.39776       -3.56915       -0.73723
C         -0.75775        4.63969       -0.63655
C          0.34222        3.99228       -1.25989
C          0.39784        2.60876       -1.21552
C         -0.61994        1.87758       -0.66037
C         -1.74544        2.49187       -0.17806
C         -1.86443        3.87212       -0.18502
O         -0.71245        6.03557       -0.38784
C          1.47956        4.73301       -1.98306
H          1.25759        2.08368       -1.59755
H         -2.52633        1.87744        0.23784
C         -3.18676        4.48036        0.31135
C          3.78120       -1.22869        0.43269
C          3.18849       -0.16272        1.15725
C          1.89388        0.20759        0.83550
C          1.23346       -0.37517       -0.21256
C          1.83647       -1.33708       -0.97968
C          3.12596       -1.76113       -0.70750
O          5.00922       -1.79121        0.87167
C          3.90311        0.56650        2.30491
H          1.36360        0.93592        1.42452
H          1.27680       -1.76736       -1.79112
C          3.78166       -2.80347       -1.62711
C          1.13494        6.20555       -2.26615
C          2.75938        4.65745       -1.13354
C          1.73978        4.06082       -3.34931
C         -4.37195        3.72880       -0.33403
C         -3.27146        4.33445        1.84008
C         -3.33238        5.96278       -0.07379
C         -0.11327        6.35084        0.85825
H          1.03662        6.77262       -1.34365
H          1.91075        6.68261       -2.86457
H          0.19243        6.28234       -2.80713
H          2.61517        5.12527       -0.16153
H          3.05312        3.62214       -0.96332
H          3.58700        5.16306       -1.63032
H          0.82723        4.03406       -3.94420
H          2.49360        4.60851       -3.91436
H          2.09819        3.03903       -3.23643
H         -5.32035        4.18824       -0.05668
H         -4.29377        3.74890       -1.42066
H         -4.41205        2.68785       -0.01788
H         -4.21370        4.73036        2.21784
H         -3.20390        3.28798        2.13590
H         -2.46163        4.86948        2.33201
H         -4.31492        6.34552        0.20132
H         -2.58854        6.57591        0.42931
H         -3.20372        6.09531       -1.14744
H         -0.65769        5.86743        1.66768
H          0.91875        6.00460        0.87576
H         -0.13353        7.43103        1.00418
C          4.85762       -2.85405        1.80447
C          5.42564        0.60133        2.08119
C          3.42848        2.03560        2.39225
C          3.57562       -0.13519        3.63164
C          5.30259       -2.58198       -1.71375
C          3.48214       -4.21495       -1.10022
C          3.22533       -2.68988       -3.06492
H          5.85104       -0.39893        2.08528
H          5.66166        1.06031        1.12167
H          5.92361        1.17422        2.86305
H          4.02083        2.59108        3.11892
H          3.52917        2.53301        1.42810
H          2.38854        2.10680        2.70705
H          2.50092       -0.13325        3.81262
H          3.90686       -1.17090        3.62220
H          4.06011        0.36635        4.46891
H          5.77975       -2.72681       -0.74761
H          5.76091       -3.27853       -2.41535
H          5.52438       -1.56888       -2.04753
H          3.85397       -4.34608       -0.08707
H          2.40907       -4.40151       -1.08732
H          3.94678       -4.97315       -1.73002
H          2.17990       -2.99078       -3.11780
H          3.77841       -3.33655       -3.74572
H          3.30778       -1.66759       -3.43312
H          5.34289       -2.58978        2.74380
H          3.80079       -3.05435        1.98555
H          5.33697       -3.75212        1.41511
