171
-217.84557458
P         -1.57129        0.37293       -0.43099
P          1.62447       -0.35569       -0.28947
C         -0.82249        1.38250       -1.71497
C          1.01515       -1.27754       -1.70792
C          0.03449        0.82101       -2.65441
C          0.67734        1.66807       -3.57768
C          0.40467        3.02560       -3.55458
C         -0.47492        3.55828       -2.63621
C         -1.07872        2.73185       -1.70882
C          1.26066       -2.62815       -1.76211
C          0.74924       -3.38821       -2.79536
C         -0.02453       -2.78788       -3.76549
C         -0.28346       -1.42800       -3.73116
C          0.26155       -0.64881       -2.69235
Cl         1.41908        0.19215        2.95023
Cl        -1.75951       -0.44681        2.72828
C         -1.11932       -0.81598       -4.80054
C          1.63362        1.13130       -4.58482
H         -0.68561        4.61524       -2.63713
H         -1.75450        3.14132       -0.97539
H          1.85829       -3.09247       -0.99498
H          0.95099       -4.44596       -2.84028
H          0.89175        3.66799       -4.26875
H         -0.43746       -3.37795       -4.56628
C         -3.69611       -3.36052       -1.84609
C         -2.78357       -3.45826       -0.80261
C         -2.12418       -2.30210       -0.40997
C         -2.37156       -1.10831       -1.04003
C         -3.27652       -1.02605       -2.06947
C         -3.96248       -2.15911       -2.49247
H         -4.23171       -4.23726       -2.15780
H         -1.42591       -2.32896        0.40893
H         -3.45106       -0.06705       -2.52677
C         -4.52291        2.75322        2.05902
C         -3.16858        3.04860        2.16448
C         -2.28487        2.33438        1.36673
C         -2.74159        1.35281        0.52271
C         -4.08139        1.06752        0.43829
C         -5.00378        1.77068        1.20217
H         -5.22723        3.28907        2.66705
H         -1.22648        2.52498        1.42625
H         -4.40004        0.27741       -0.21765
C          4.34638       -2.87848        2.31932
C          3.01124       -3.24463        2.19454
C          2.20555       -2.47864        1.36304
C          2.71252       -1.38116        0.71299
C          4.02873       -1.02302        0.86319
C          4.87787       -1.77286        1.66651
H          4.99398       -3.45994        2.94798
H          1.16665       -2.72850        1.23149
H          4.38500       -0.14364        0.35739
C          3.79992        3.50517       -1.18358
C          2.76239        3.51796       -0.25914
C          2.08146        2.32874       -0.03699
C          2.44457        1.18214       -0.69866
C          3.47864        1.18263       -1.60187
C          4.17981        2.35415       -1.86354
H          4.34236        4.41177       -1.37423
H          1.26723        2.28994        0.66559
H          3.73916        0.25769       -2.08771
Pd        -0.06766       -0.09853        1.29301
C         -2.78868       -4.57879        1.44096
C         -2.49903       -4.77111       -0.06017
C         -1.02121       -5.14942       -0.25650
C         -3.37481       -5.92550       -0.58283
H         -3.82594       -4.28373        1.59762
H         -2.61185       -5.50108        1.99397
H         -2.15422       -3.80616        1.87314
H         -0.36441       -4.36016        0.10566
H         -0.77682       -6.06565        0.28060
H         -0.80307       -5.30784       -1.31200
H         -3.18360       -6.11622       -1.63870
H         -3.16490       -6.84639       -0.03885
H         -4.43402       -5.70162       -0.45727
C         -6.40327       -2.44474       -2.96685
C         -5.03609       -2.10608       -3.58904
C         -4.70398       -3.12950       -4.69151
C         -5.12578       -0.70744       -4.23040
H         -6.40310       -3.44467       -2.53431
H         -6.65146       -1.73869       -2.17487
H         -7.19413       -2.40400       -3.71563
H         -3.72173       -2.93453       -5.11955
H         -4.70203       -4.14697       -4.30285
H         -5.43675       -3.08484       -5.49707
H         -5.40853        0.04493       -3.49440
H         -4.17440       -0.41579       -4.67368
H         -5.87679       -0.69178       -5.02012
C         -3.73805        4.74503        3.97647
C         -2.61599        4.08511        3.15276
C         -1.86950        5.18274        2.37480
C         -1.64403        3.38465        4.12214
H         -4.44364        5.26738        3.33067
H         -4.28438        4.00361        4.55919
H         -3.32716        5.47482        4.67403
H         -2.53331        5.67057        1.66130
H         -1.47798        5.94385        3.04951
H         -1.03069        4.76612        1.82104
H         -2.14995        2.58437        4.66162
H         -0.80154        2.94366        3.59091
H         -1.24572        4.08791        4.85308
C         -6.97757        0.98325        2.52900
C         -6.50753        1.46675        1.14513
C         -6.82590        0.36949        0.10954
C         -7.27275        2.74342        0.75097
H         -8.03944        0.73813        2.51730
H         -6.42781        0.09206        2.83121
H         -6.81940        1.74702        3.28951
H         -6.50788        0.66940       -0.88885
H         -6.32984       -0.56699        0.36419
H         -7.89730        0.17354        0.06984
H         -8.34310        2.55035        0.68079
H         -7.12543        3.53672        1.48278
H         -6.93219        3.11249       -0.21631
C          1.04952       -4.10854        3.51864
C          2.42023       -4.46858        2.90862
C          3.33664       -4.95439        4.04862
C          2.24941       -5.60433        1.88601
H          0.31695       -3.86931        2.74965
H          0.65119       -4.93997        4.09976
H          1.13679       -3.24582        4.17875
H          2.87262       -5.77580        4.59447
H          4.28941       -5.31742        3.66445
H          3.53322       -4.15103        4.75844
H          1.60733       -5.29381        1.06313
H          3.21245       -5.89173        1.46442
H          1.80482       -6.48524        2.34873
C          7.24505       -2.58042        1.45152
C          6.35265       -1.39578        1.86559
C          6.59020       -1.05708        3.34823
C          6.74513       -0.17163        1.01404
H          8.30023       -2.32974        1.55928
H          7.04851       -3.45948        2.06400
H          7.06693       -2.85046        0.41077
H          6.37101       -1.91081        3.98847
H          7.62607       -0.76606        3.52156
H          5.94998       -0.23230        3.66073
H          7.79740        0.07576        1.15325
H          6.58928       -0.36743       -0.04672
H          6.16176        0.70553        1.29360
C          2.12022        4.47381        1.98250
C          2.34026        4.79072        0.48906
C          1.03371        5.31535       -0.12638
C          3.41547        5.89036        0.38791
H          1.87528        5.37751        2.54029
H          1.30345        3.76906        2.12883
H          3.01904        4.04026        2.42027
H          0.25137        4.55970       -0.07390
H          0.68303        6.20608        0.39453
H          1.17956        5.57185       -1.17537
H          3.13470        6.76100        0.98052
H          4.37592        5.53117        0.75731
H          3.54381        6.22571       -0.64084
C          5.15212        3.47675       -3.89316
C          5.38042        2.39561       -2.81977
C          5.59155        1.04208       -3.52601
C          6.65008        2.72886       -2.01487
H          5.97901        3.50100       -4.60275
H          4.23658        3.28350       -4.45044
H          5.06888        4.46771       -3.44888
H          6.43409        1.09308       -4.21553
H          5.80467        0.25224       -2.80596
H          4.71109        0.75672       -4.10071
H          7.52725        2.75323       -2.66123
H          6.56550        3.70022       -1.52882
H          6.82211        1.98217       -1.24020
H         -1.96448       -1.45841       -5.04778
H          1.16395        1.05415       -5.56627
H         -0.53827       -0.66550       -5.71131
H         -1.51963        0.15018       -4.49042
H          1.99597        0.14160       -4.30352
H          2.50162        1.78359       -4.68160
