87
-129.18867383
P         -1.61708       -0.33262       -0.23106
P          1.60555        0.35769       -0.08738
C         -1.34405        0.97168       -1.44579
C          1.41783       -0.67177       -1.55252
C         -0.35074        0.86967       -2.41521
C         -0.13050        1.96049       -3.27910
C         -0.92228        3.08990       -3.16051
C         -1.91070        3.16710       -2.20356
C         -2.11367        2.10552       -1.34442
C          2.19758       -1.79798       -1.65750
C          2.05537       -2.64571       -2.73802
C          1.12000       -2.36127       -3.70951
C          0.32049       -1.23409       -3.62313
C          0.47742       -0.36055       -2.52887
Cl         1.23441        0.69144        3.14573
Cl        -1.45337       -1.13376        2.90662
H         -2.51523        4.05523       -2.11866
H         -2.87849        2.16385       -0.58822
H          2.92197       -2.01773       -0.89116
H          2.66609       -3.53025       -2.81568
H         -0.75086        3.91956       -3.82523
H          0.99698       -3.02496       -4.54852
C         -1.46499       -4.50111       -2.03087
C         -0.68187       -4.20951       -0.92240
C         -0.76483       -2.93791       -0.36928
C         -1.58067       -1.98331       -0.93123
C         -2.35018       -2.27788       -2.03203
C         -2.29551       -3.54511       -2.58237
H         -1.41774       -5.48704       -2.46085
C          0.20824       -5.23659       -0.31664
H         -0.18189       -2.69623        0.50298
H         -2.97778       -1.51291       -2.46168
H         -2.89522       -3.78343       -3.44544
C         -5.49340        0.42515        2.03932
C         -5.40838       -0.63761        1.16176
C         -4.23463       -0.86781        0.46934
C         -3.15628       -0.03573        0.65882
C         -3.23801        1.02193        1.53548
C         -4.41237        1.27337        2.23443
H         -6.40323        0.60068        2.58770
H         -6.25382       -1.29091        1.02072
H         -4.15156       -1.69940       -0.21079
H         -2.37866        1.65284        1.69305
C         -4.48444        2.39583        3.20873
C          5.20426       -1.04393        2.33017
C          5.23590        0.18710        1.70519
C          4.14597        0.61653        0.97188
C          3.03647       -0.18858        0.86432
C          3.00129       -1.41379        1.48996
C          4.08376       -1.85799        2.23901
H          6.05301       -1.38131        2.90030
H          6.10812        0.81426        1.79087
H          4.15360        1.57886        0.48721
H          2.12272       -2.03190        1.40585
C          4.04368       -3.19104        2.89937
C          1.82582        4.77533       -1.11806
C          2.66919        3.87998       -1.74644
C          2.60994        2.53594       -1.42744
C          1.71508        2.10393       -0.47703
C          0.88268        2.99437        0.16053
C          0.91519        4.34518       -0.16272
H          1.86792        5.82182       -1.36766
H          3.36827        4.22647       -2.48980
H          3.24689        1.81940       -1.92205
H          0.19477        2.64037        0.90957
C          0.01068        5.30612        0.52468
Pd        -0.05540       -0.09746        1.48912
C          0.93928        1.93028       -4.31507
C         -0.68957       -0.97631       -4.68692
H          0.51443        1.78430       -5.30890
H          1.49762        2.86742       -4.32385
H          1.65250        1.12623       -4.13073
H         -1.41662       -0.22575       -4.37507
H         -0.21043       -0.62355       -5.60098
H         -1.24091       -1.88636       -4.92754
H         -0.30195       -5.76386        0.49058
H          0.52171       -5.97367       -1.05727
H          1.10877       -4.77896        0.09616
H         -4.14661        2.07285        4.19441
H         -3.85482        3.22955        2.89423
H         -5.50484        2.76906        3.30664
H          3.04933       -3.39904        3.29739
H          4.29579       -3.98204        2.19163
H          4.74970       -3.24298        3.72931
H          0.46560        5.67606        1.44452
H         -0.21084        6.16378       -0.11207
H         -0.93783        4.83332        0.78440
