171
-217.84611985
P         -1.60804        0.39340       -0.38104
P          1.60881       -0.33599       -0.25209
C         -0.83888        1.44815       -1.61910
C          0.99537       -1.21484       -1.69222
C          0.03298        0.92219       -2.56636
C          0.70366        1.80553       -3.43456
C          0.44796        3.16391       -3.35013
C         -0.44363        3.66303       -2.42483
C         -1.07857        2.79955       -1.55445
C          1.24369       -2.56146       -1.79378
C          0.75024       -3.27869       -2.86608
C         -0.00663       -2.63938       -3.82524
C         -0.26854       -1.28193       -3.74060
C          0.25750       -0.54596       -2.66151
Cl         1.52367        0.32400        2.88104
Cl        -1.71533       -0.31013        2.82973
C         -1.07800       -0.62111       -4.80113
C          1.68651        1.31177       -4.43825
H         -0.63855        4.72180       -2.37397
H         -1.76673        3.18428       -0.81995
H          1.82875       -3.05286       -1.03319
H          0.95421       -4.33355       -2.95104
H          0.96094        3.83387       -4.01947
H         -0.40280       -3.19668       -4.65731
C         -3.57641       -3.38434       -1.89525
C         -2.67497       -3.47441       -0.84154
C         -2.04951       -2.30652       -0.42593
C         -2.33762       -1.10763       -1.02954
C         -3.24048       -1.03263       -2.06125
C         -3.88087       -2.17926       -2.51670
H         -4.07022       -4.27345       -2.23894
H         -1.33883       -2.32528        0.38182
H         -3.44834       -0.06946       -2.49551
C         -4.71555        2.63368        2.05016
C         -3.38421        3.02108        2.14822
C         -2.45300        2.34417        1.37229
C         -2.84082        1.31177        0.55510
C         -4.15809        0.93318        0.48169
C         -5.12716        1.59451        1.22479
H         -5.45621        3.14271        2.63765
H         -1.41045        2.60997        1.42117
H         -4.42247        0.10554       -0.15166
C          4.24644       -2.95306        2.35829
C          2.89025       -3.24785        2.26962
C          2.10593       -2.46235        1.43494
C          2.65637       -1.41390        0.74048
C          3.99448       -1.13072        0.84987
C          4.82108       -1.89940        1.65679
H          4.86739       -3.55050        2.99744
H          1.04945       -2.65234        1.34775
H          4.39764       -0.28791        0.31675
C          3.93535        3.40702       -1.25070
C          2.85626        3.50317       -0.38113
C          2.14958        2.34258       -0.09432
C          2.50092        1.15380       -0.68263
C          3.55521        1.07850       -1.55908
C          4.30300        2.21178       -1.85645
H          4.52064        4.28671       -1.44476
H          1.32510        2.35335        0.59695
H          3.79518        0.12385       -1.99582
Pd        -0.07453        0.00560        1.33447
C         -0.97746       -5.29862       -0.68770
C         -2.33659       -4.81006       -0.16353
C         -3.40262       -5.88231       -0.46382
C         -2.26727       -4.62384        1.36614
H         -0.68449       -6.23367       -0.21065
H         -1.01843       -5.46569       -1.76376
H         -0.20145       -4.55940       -0.49508
H         -3.19370       -6.79969        0.08648
H         -4.39461       -5.53703       -0.17287
H         -3.42203       -6.13739       -1.52292
H         -2.08910       -5.57555        1.86648
H         -1.46280       -3.94945        1.65398
H         -3.20197       -4.21260        1.74657
C         -5.08896       -0.72896       -4.22436
C         -4.93920       -2.14234       -3.62842
C         -6.29745       -2.56968       -3.04209
C         -4.53766       -3.11009       -4.75755
H         -5.41517       -0.01607       -3.46731
H         -4.14783       -0.37792       -4.64595
H         -5.83116       -0.72255       -5.02249
H         -6.25492       -3.58332       -2.64507
H         -6.59261       -1.90562       -2.23021
H         -7.07762       -2.54080       -3.80254
H         -3.55958       -2.85149       -5.16071
H         -4.48988       -4.13850       -4.40191
H         -5.25837       -3.07549       -5.57438
C         -1.74600        3.66290        3.94118
C         -2.91499        4.15837        3.06610
C         -4.04324        4.64078        3.99803
C         -2.45066        5.34072        2.19840
H         -0.88204        3.38725        3.33845
H         -1.42664        4.43583        4.63986
H         -2.04243        2.78688        4.51761
H         -4.42222        3.82122        4.60840
H         -3.68210        5.41740        4.67216
H         -4.87217        5.06140        3.42931
H         -1.64401        5.04238        1.53088
H         -3.26990        5.71241        1.58322
H         -2.09035        6.16290        2.81643
C         -7.04157        0.69978        2.56920
C         -6.60707        1.18906        1.17596
C         -6.85151        0.05531        0.15980
C         -7.45789        2.40357        0.76078
H         -6.93137        1.48540        3.31583
H         -8.08524        0.38589        2.56527
H         -6.43416       -0.14832        2.88476
H         -7.90774       -0.21102        0.12326
H         -6.55231        0.35856       -0.84337
H         -6.29570       -0.84232        0.43039
H         -7.14271        2.77896       -0.21265
H         -8.51236        2.13615        0.69410
H         -7.36668        3.21731        1.47912
C          1.12982       -3.75241        3.97825
C          2.22707       -4.36585        3.08665
C          3.24020       -5.09362        3.99070
C          1.60147       -5.39330        2.12767
H          1.55277       -3.00303        4.64683
H          0.35856       -3.26589        3.38266
H          0.64762       -4.51686        4.58704
H          2.74965       -5.87798        4.56702
H          4.02744       -5.56225        3.40045
H          3.70045       -4.40400        4.69804
H          1.13070       -6.20755        2.67829
H          0.84057       -4.93005        1.50325
H          2.35902       -5.82072        1.47104
C          7.06622       -2.48812        2.70470
C          6.30985       -1.53817        1.75679
C          6.44548       -0.10036        2.29319
C          6.94832       -1.63011        0.35828
H          8.12077       -2.21846        2.76143
H          6.65928       -2.44026        3.71457
H          7.00788       -3.51898        2.35585
H          7.49333        0.18023        2.39804
H          5.97386        0.61896        1.62457
H          5.97075       -0.00836        3.26980
H          6.84647       -2.63701       -0.04605
H          6.47389       -0.94083       -0.33903
H          8.00995       -1.38674        0.39671
C          2.32982        5.91828       -0.82989
C          2.50466        4.84941        0.26545
C          3.64022        5.26096        1.21845
C          1.19228        4.76188        1.06825
H          2.03601        6.87463       -0.39761
H          3.25357        6.07592       -1.38492
H          1.55995        5.61861       -1.53998
H          3.41675        6.20980        1.70581
H          3.78325        4.50785        1.99321
H          4.58235        5.37228        0.68261
H          0.92727        5.73314        1.48567
H          0.37091        4.43708        0.43044
H          1.28382        4.06214        1.89858
C          5.47825        3.25906       -3.82386
C          5.54941        2.15519       -2.75101
C          5.67370        0.79452       -3.46477
C          6.79667        2.36705       -1.87420
H          4.57809        3.15561       -4.42838
H          5.46896        4.25195       -3.37654
H          6.33830        3.20744       -4.49134
H          6.53855        0.78340       -4.12797
H          5.80166       -0.01667       -2.74863
H          4.79042        0.58610       -4.06785
H          6.86037        1.59982       -1.10277
H          7.70713        2.32271       -2.47157
H          6.76693        3.33666       -1.37798
H         -0.45834       -0.36538       -5.66154
H          2.59176        1.91918       -4.42196
H         -1.54141        0.29552       -4.43353
H         -1.87572       -1.27729       -5.14951
H          1.27154        1.35700       -5.44607
H          1.98013        0.28048       -4.23833
