100
-131.96407544
C         -3.14287       -2.82796       -1.52260
C         -1.99033       -3.43371       -0.85029
C         -2.81274       -1.48411       -1.84252
C         -1.40807       -1.19583       -1.41676
C         -0.56868       -0.31471       -2.29625
C         -0.93180       -2.47169       -0.76672
C          0.44738       -2.85343       -0.24532
C          1.05486       -3.99770       -1.03019
Cl        -0.53203        1.52149        2.51441
Cl         0.52031       -1.51451        2.81506
C          0.68932        1.28241       -4.23543
C          0.24626        0.01732       -4.56740
C          0.51686        1.75156       -2.94128
C         -0.37903       -0.75878       -3.62377
C         -0.07433        0.97090       -1.97646
H         -1.93026       -4.46712       -0.50321
H         -3.42953       -0.81369       -2.44570
H          1.23528       -3.70313       -2.06542
H          2.00353       -4.32252       -0.59806
H          0.39036       -4.86486       -1.05212
H          1.16758        1.90171       -4.97644
H          0.37811       -0.35358       -5.57094
H          0.85076        2.74601       -2.68996
H         -0.75264       -1.73221       -3.89234
H         -4.07992       -3.33453       -1.76703
P         -0.14938        1.72937       -0.34019
H          0.31366       -3.16394        0.79983
P          1.68639       -1.47477       -0.11432
H          1.73173       -1.51875       -2.52536
C          3.83203       -1.33945       -2.08400
C          2.36115       -1.03593       -1.77870
C          4.07322       -2.82670       -2.34466
H          3.56203       -2.79848        0.53885
C          3.98396       -0.90577        1.50788
C          3.01388       -2.00601        1.04838
H          4.14279       -0.22118        0.65731
C          3.42757       -0.08622        2.67509
H          1.07702        3.75737       -0.78804
H         -1.96141        2.71875        0.89199
C         -4.23212        2.53177       -0.75588
C         -2.86894        1.82111       -0.85567
C         -1.75945        2.63533       -0.18285
C         -1.67950        4.04183       -0.79622
C         -3.03770        4.76919       -0.71481
C         -4.15486        3.93931       -1.37532
H         -4.52117        2.61461        0.29913
H         -5.02095        1.93384       -1.23353
H         -2.60766        1.68001       -1.91219
H         -2.90485        0.81241       -0.42879
H         -0.89595        4.63358       -0.30517
H         -1.36827        3.95124       -1.84411
H         -3.29071        4.94445        0.33827
H         -2.97200        5.76714       -1.17059
H         -3.95462        3.85194       -2.45067
H         -5.12296        4.45419       -1.29747
C          3.78313        3.27780       -0.17780
C          2.61332        2.29888       -0.40776
C          1.25475        2.93718       -0.08258
C          1.25577        3.50833        1.34203
C          2.39874        4.51955        1.54441
C          3.75775        3.86029        1.24720
H          3.71932        4.09596       -0.90601
H          4.74433        2.78301       -0.37697
H          2.74044        1.40833        0.21585
H          2.62472        1.94182       -1.44426
H          0.27954        3.94777        1.58709
H          1.38674        2.68013        2.04773
H          2.25195        5.37240        0.87015
H          2.37696        4.93830        2.56030
H          3.93733        3.05598        1.97145
H          4.57967        4.57553        1.39291
H          4.42973       -1.04129       -1.20690
C          4.30632       -0.50613       -3.27950
H          2.54390       -2.47546        1.91289
C          5.34088       -1.50872        1.88566
H          2.18401        0.03153       -1.88649
H          5.12251       -3.02531       -2.56907
H          3.48743       -3.16672       -3.19926
H          3.79851       -3.44302       -1.49049
H          5.35713       -0.69249       -3.50664
H          3.72755       -0.75139       -4.17064
H          4.18797        0.56313       -3.09636
H          4.14094        0.66960        3.00696
H          2.50348        0.42664        2.41552
H          3.21279       -0.73020        3.52815
H          6.05071       -0.73789        2.18994
H          5.23204       -2.20361        2.71892
H          5.78187       -2.05942        1.05310
Fe        -2.63684       -1.78058        0.15545
C         -4.16012       -0.72934        1.11337
C         -2.91357       -0.63680        1.84675
C         -2.49634       -1.97885        2.20607
C         -3.47479       -2.90738        1.67978
C         -4.49306       -2.13505        0.99286
H         -4.76424        0.10443        0.75022
H         -2.37116        0.27749        2.09280
H         -1.58061       -2.24145        2.73604
H         -3.45232       -3.99441        1.78612
H         -5.38677       -2.54034        0.51256
Pd         0.31449       -0.05498        1.11024
