58
-89.86564899
P          1.67936        0.16846        0.79613
C          2.86811        1.50469        0.64325
C          2.45617        2.79751        0.87193
C          3.35969        3.83793        0.74672
C          4.66866        3.57387        0.39436
C          5.07675        2.27424        0.16697
C          4.17118        1.23622        0.29217
H          4.47292        0.21708        0.11199
H          1.42818        2.98823        1.13790
C          2.32445       -1.34089        0.06369
C          2.58014       -2.46525        0.81604
C          3.03857       -3.61414        0.19703
C          3.23822       -3.62962       -1.16948
C          2.98393       -2.49892       -1.91977
C          2.52580       -1.35246       -1.29800
H          2.30990       -0.46085       -1.86599
H          2.41525       -2.44811        1.88049
C          1.34092       -0.00776        2.59535
C          0.08486       -0.78858        2.93926
C         -1.20006       -0.05245        2.58729
P         -1.65906       -0.23655        0.81929
C         -3.24018        0.57873        0.54441
C         -3.46073        1.82444        1.08769
C         -4.65969        2.47491        0.85569
C         -5.62725        1.87703        0.07296
C         -5.39704        0.63406       -0.48209
C         -4.19780       -0.01364       -0.24719
H         -3.99650       -0.97258       -0.69638
H         -2.69080        2.29123        1.68092
C         -1.76968       -2.00204        0.49276
C         -0.73134       -2.64776       -0.13672
C         -0.79273       -4.01155       -0.35265
C         -1.89603       -4.72445        0.07169
C         -2.93045       -4.07735        0.71865
C         -2.86263       -2.71244        0.93532
H         -3.65537       -2.19810        1.45511
H          0.13731       -2.08900       -0.43711
Pd        -0.07186        0.67035       -0.63176
Cl         1.32034        1.73362       -2.04128
Cl        -1.84555        1.21261       -1.91037
H         -2.05101       -0.44257        3.15140
H         -1.12051        1.01003        2.82196
H          0.10009       -1.76361        2.43398
H          0.08948       -1.02010        4.01605
H          2.23244       -0.46301        3.03294
H          1.27993        1.00305        3.00358
H          3.04015        4.85242        0.91964
H          6.09725        2.06848       -0.11139
H          3.23620       -4.49782        0.78128
H          3.13795       -2.50922       -2.98623
H         -4.83448        3.44981        1.28035
H         -6.14634        0.17192       -1.10356
H          0.02350       -4.51499       -0.84409
H         -3.78809       -4.63455        1.05817
H          5.37239        4.38402        0.29365
H          3.59335       -4.52602       -1.65123
H         -6.55996        2.38470       -0.11165
H         -1.94697       -5.78789       -0.09623
