171
-217.84442606
P         -1.54114        0.38995       -0.46805
P          1.62166       -0.35995       -0.29321
C         -0.78412        1.38269       -1.75798
C          1.02026       -1.29482       -1.70486
C          0.07075        0.80178       -2.68742
C          0.72581        1.63265       -3.61672
C          0.46592        2.99299       -3.60906
C         -0.41216        3.54438       -2.70006
C         -1.02780        2.73414       -1.76616
C          1.25076       -2.64869       -1.73609
C          0.74119       -3.41762       -2.76372
C         -0.01629       -2.82242       -3.74985
C         -0.26076       -1.45938       -3.73757
C          0.28399       -0.67100       -2.70548
Cl         1.37415        0.29878        2.96838
Cl        -1.75279       -0.58897        2.68824
C         -1.08492       -0.85563       -4.82070
C          1.68217        1.07608       -4.61295
H         -0.61205        4.60334       -2.71299
H         -1.70184        3.15700       -1.03858
H          1.83316       -3.10815       -0.95426
H          0.93054       -4.47825       -2.79115
H          0.96238        3.62300       -4.32778
H         -0.42895       -3.41949       -4.54559
C         -3.72109       -3.32307       -1.84547
C         -2.80840       -3.42611       -0.80245
C         -2.12746       -2.27804       -0.42325
C         -2.35348       -1.08764       -1.06709
C         -3.25806       -0.99973       -2.09618
C         -3.96605       -2.12412       -2.50505
H         -4.27574       -4.19245       -2.14416
H         -1.43336       -2.30604        0.39917
H         -3.41805       -0.04178       -2.56109
C         -4.50045        2.75107        2.03581
C         -3.14868        3.06558        2.12700
C         -2.26059        2.36038        1.32593
C         -2.70973        1.37097        0.48721
C         -4.04594        1.06808        0.41629
C         -4.97246        1.75639        1.18655
H         -5.20052        3.28497        2.64892
H         -1.20475        2.56622        1.37745
H         -4.36890        0.27192       -0.23151
C          4.25689       -2.85290        2.42910
C          2.91963       -3.20494        2.28704
C          2.14128       -2.45186        1.41858
C          2.67587       -1.37824        0.75106
C          3.99339       -1.03285        0.91851
C          4.81617       -1.77198        1.75831
H          4.88377       -3.42536        3.08639
H          1.10185       -2.69137        1.27286
H          4.37090       -0.17097        0.39804
C          3.85508        3.46254       -1.20925
C          2.80792        3.49871       -0.29629
C          2.11038        2.32060       -0.06779
C          2.46608        1.16195       -0.71225
C          3.50947        1.13916       -1.60423
C          4.22748        2.29903       -1.87212
H          4.41105        4.36003       -1.40401
H          1.28908        2.30049        0.62729
H          3.76369        0.20537       -2.07625
Pd        -0.07263       -0.04160        1.28931
C         -2.85040       -4.51610        1.45485
C         -2.55118       -4.73350       -0.04099
C         -1.07797       -5.13782       -0.21993
C         -3.44092       -5.88054       -0.55604
H         -2.68999       -5.43249        2.02245
H         -2.20972       -3.74530        1.88099
H         -3.88492       -4.20533        1.59874
H         -0.85261       -6.05060        0.33120
H         -0.85374       -5.31367       -1.27140
H         -0.41150       -4.35442        0.13726
H         -3.24641       -6.08565       -1.60861
H         -3.24791       -6.79825       -0.00054
H         -4.49742       -5.63977       -0.43929
C         -5.10036       -0.67027       -4.26045
C         -5.04752       -2.05859       -3.59284
C         -6.41759       -2.34233       -2.94990
C         -4.75710       -3.11145       -4.67916
H         -5.35731        0.10412       -3.53801
H         -4.14333       -0.41503       -4.71393
H         -5.85508       -0.64790       -5.04647
H         -7.21529       -2.29029       -3.69067
H         -6.44345       -3.33374       -2.49886
H         -6.63412       -1.61446       -2.16805
H         -3.77287       -2.95402       -5.11840
H         -4.78337       -4.12153       -4.27258
H         -5.49507       -3.05827       -5.47942
C         -1.62007        3.42865        4.07648
C         -2.60035        4.11437        3.10497
C         -3.72399        4.77355        3.92713
C         -1.86388        5.21116        2.31573
H         -2.11865        2.63009        4.62527
H         -0.77699        2.98829        3.54562
H         -1.22319        4.14089        4.79945
H         -4.26164        4.03392        4.52009
H         -3.31579        5.51362        4.61536
H         -4.43666        5.28367        3.27932
H         -1.02250        4.79728        1.76360
H         -2.53311        5.68760        1.59961
H         -1.47722        5.98115        2.98313
C         -7.33320        2.23556        2.01213
C         -6.45467        1.36835        1.09065
C         -6.61649       -0.10685        1.50419
C         -6.93520        1.55325       -0.36102
H         -8.38173        1.95035        1.92697
H         -7.04352        2.11658        3.05600
H         -7.25580        3.29031        1.74891
H         -6.25253       -0.26339        2.51939
H         -7.66267       -0.41008        1.46877
H         -6.05577       -0.76762        0.84385
H         -6.80651        2.58724       -0.68036
H         -6.37511        0.91943       -1.04753
H         -7.99026        1.29802       -0.45847
C          0.92047       -3.99903        3.59819
C          2.29648       -4.39812        3.02542
C          3.18371       -4.86331        4.19667
C          2.12697       -5.56126        2.03395
H          0.20651       -3.77125        2.80854
H          0.49792       -4.80653        4.19570
H          1.00900       -3.11850        4.23416
H          4.13755       -5.25232        3.84169
H          3.37983       -4.04200        4.88577
H          2.69660       -5.66062        4.75794
H          1.50472       -5.26603        1.19053
H          3.09301       -5.87526        1.63902
H          1.66061       -6.42128        2.51420
C          6.50237       -1.03521        3.45726
C          6.29107       -1.40743        1.97866
C          6.71579       -0.20906        1.10608
C          7.17707       -2.61230        1.61211
H          6.26063       -1.87059        4.11339
H          7.53775       -0.75128        3.64473
H          5.86534       -0.19614        3.73649
H          6.13761        0.68144        1.35230
H          7.76796        0.02925        1.26102
H          6.57924       -0.42857        0.04729
H          8.23280       -2.37182        1.73641
H          6.95653       -3.47393        2.24099
H          7.01760       -2.90513        0.57450
C          1.08885        5.30748       -0.18393
C          2.39359        4.78329        0.43597
C          3.47442        5.87572        0.31976
C          2.17313        4.48558        1.93329
H          0.30188        4.55753       -0.11991
H          0.74442        6.20695        0.32604
H          1.23426        5.54948       -1.23641
H          3.19717        6.75672        0.89857
H          4.43248        5.51748        0.69620
H          3.60591        6.19434       -0.71391
H          1.93470        5.39738        2.48061
H          1.35180        3.78799        2.08853
H          3.06946        4.05115        2.37527
C          5.63714        0.95058       -3.50693
C          5.43736        2.31440       -2.81732
C          6.70377        2.63982       -2.00419
C          5.23288        3.38635       -3.90461
H          5.83481        0.16622       -2.77653
H          4.75762        0.66981       -4.08535
H          6.48554        0.98348       -4.19035
H          6.62724        3.61724       -1.52906
H          6.85908        1.89908       -1.22027
H          7.58703        2.64624       -2.64262
H          4.32016        3.19826       -4.46829
H          5.15808        4.38315       -3.47206
H          6.06656        3.39227       -4.60660
H         -1.93825       -1.49111       -5.05862
H          2.55738        1.71850       -4.71137
H         -0.49909       -0.72972       -5.73215
H         -1.47295        0.12140       -4.52956
H          1.21708        0.99364       -5.59616
H          2.03280        0.08567       -4.31956
