59
-75.80791055
Cl         1.74478        0.48893        2.30617
P          1.62470       -0.03847       -0.88413
P         -1.55945       -0.09193       -0.75548
C          0.61850       -0.01169       -2.43332
H          0.40154        1.02838       -2.68622
H          1.21941       -0.42381       -3.24985
C         -0.65683       -0.77535       -2.21816
H         -0.44928       -1.83084       -2.03198
H         -1.31903       -0.72665       -3.08799
C          2.81812       -1.46253       -0.87384
H          2.77776       -1.90373       -1.87707
C          2.83205        1.36714       -0.76328
H          2.80668        1.69261        0.28406
C         -3.06700       -1.10955       -0.38702
H         -3.42186       -0.77000        0.59392
C         -2.49400        1.42228       -1.28644
H         -1.86555        1.99351       -1.97995
C          4.18266       -0.79005       -0.63474
H          4.42083       -0.84922        0.43624
H          4.98126       -1.34983       -1.14472
C          4.17919        0.69611       -1.07542
H          4.36538        0.76038       -2.15646
H          5.00278        1.25053       -0.59989
C         -4.03881       -0.64434       -1.48806
H         -3.98773       -1.35943       -2.32192
H         -5.07617       -0.70317       -1.12460
C         -3.71490        0.79828       -2.00122
H         -4.58818        1.45296       -1.86625
H         -3.53971        0.77745       -3.08774
C          2.47753       -2.51377        0.17785
H          2.34527       -2.01362        1.14639
H          3.34234       -3.17857        0.31201
C          2.50275        2.54219       -1.67627
H          3.36006        3.22931       -1.70022
H          2.40133        2.17572       -2.70586
C         -2.82092       -2.61565       -0.34476
H         -3.77841       -3.13861       -0.47665
H         -2.21601       -2.90621       -1.21225
C         -2.90010        2.28746       -0.09206
H         -3.70545        2.96803       -0.40233
H         -3.35213        1.63872        0.66956
C          1.24842       -3.33451       -0.17007
H          1.01865       -4.07704        0.59755
H          1.38065       -3.86621       -1.11429
H          0.37339       -2.69656       -0.28194
C          1.25288        3.29009       -1.24560
H          0.39133        2.62373       -1.20794
H          1.00767        4.10993       -1.92459
H          1.37201        3.71335       -0.24629
C         -2.16590       -3.07058        0.95104
H         -1.93140       -4.13738        0.94278
H         -2.81696       -2.88392        1.80722
H         -1.24020       -2.52818        1.14263
C         -1.76501        3.09609        0.51512
H         -1.35132        3.80013       -0.20875
H         -2.09554        3.67689        1.37928
H         -0.95058        2.45586        0.85254
Cl        -1.45827       -0.09555        2.46527
Pd         0.10083        0.01930        0.85621
