75
-122.81249573
P          1.86099       -0.53423        0.03510
C          1.68750       -1.50545       -1.47030
C          1.73170       -0.91120       -2.71074
C          1.69452       -1.69232       -3.85067
C          1.61667       -3.06640       -3.74005
C          1.57079       -3.65944       -2.49398
C          1.60874       -2.87457       -1.35542
H          1.59272       -3.32376       -0.37480
H          1.50621       -4.73154       -2.40718
H          1.58414       -3.67665       -4.62781
H          1.72302       -1.22831       -4.82279
H          1.78957        0.16210       -2.78216
C          3.20304       -1.32299        0.94054
C          4.48996       -1.20482        0.46672
C          5.52631       -1.84423        1.12276
C          5.26371       -2.60981        2.24133
C          3.96814       -2.74476        2.69904
C          2.93435       -2.10482        2.04017
H          1.91703       -2.20576        2.38341
H          3.76141       -3.34712        3.56833
H          6.07041       -3.10720        2.75469
H          6.53567       -1.74835        0.75770
H          4.67633       -0.62877       -0.42594
C          2.22156        1.18720       -0.36262
C          3.34180        1.86570        0.05803
C          3.49401        3.21734       -0.21837
C          2.47369        3.88161       -0.89810
C          1.33516        3.22037       -1.30174
C          1.20501        1.84747       -1.03848
O          0.04183        1.14626       -1.40163
C         -1.17263        1.80042       -1.13251
C         -1.34076        3.16355       -1.42359
C         -2.54101        3.77446       -1.13605
C         -3.58773        3.06980       -0.54287
C         -3.39512        1.73250       -0.22527
C         -2.20861        1.10512       -0.52553
P         -1.81159       -0.58174       -0.02963
C         -3.11432       -1.27167        1.00351
C         -2.84896       -1.72910        2.27378
C         -3.86606       -2.27562        3.03439
C         -5.14124       -2.36971        2.51355
C         -5.40036       -1.92404        1.23281
C         -4.38072       -1.37736        0.47455
H         -4.56325       -1.04264       -0.53477
H         -6.39361       -2.00411        0.82257
H         -5.93473       -2.79453        3.10649
H         -3.66267       -2.62556        4.03312
H         -1.84975       -1.65253        2.67058
C         -1.69794       -1.63229       -1.48345
C         -1.59358       -1.08111       -2.73981
C         -1.59964       -1.90003       -3.85368
C         -1.70693       -3.26805       -3.70023
C         -1.80407       -3.81811       -2.43735
C         -1.80197       -2.99534       -1.32520
H         -1.89561       -3.40801       -0.33298
H         -1.88436       -4.88591       -2.31723
H         -1.70712       -3.90812       -4.56736
H         -1.51383       -1.47072       -4.83830
H         -1.49700       -0.01294       -2.84229
Pd        -0.01860        0.07915        1.36979
Cl        -1.61538        1.08768        2.58996
Cl         1.61109        0.38671        2.89106
H         -4.16882        1.19009        0.28834
C         -4.86032        3.75362       -0.19074
H         -5.05812        4.58919       -0.86335
H         -4.82038        4.14220        0.82759
H         -5.70573        3.06746       -0.25652
H         -2.66214        4.81966       -1.35968
S          0.01371        4.06025       -2.13664
H          2.56512        4.93450       -1.09850
C          4.69322        3.95548        0.25963
H          4.09184        1.35185        0.63238
H          5.57278        3.31040        0.27051
H          4.91455        4.80722       -0.38479
H          4.53770        4.32992        1.27215
