171
-217.84567323
P         -1.62026        0.38490       -0.34303
P          1.67828       -0.31343       -0.31682
C         -0.88054        1.44888       -1.58593
C          1.01560       -1.19609       -1.72885
C         -0.01945        0.93257       -2.54822
C          0.62151        1.82568       -3.42765
C          0.34561        3.18027       -3.34142
C         -0.53320        3.66833       -2.39818
C         -1.13730        2.79668       -1.51414
C          1.28532       -2.53686       -1.85004
C          0.75615       -3.25688       -2.90322
C         -0.05822       -2.62637       -3.82020
C         -0.34126       -1.27458       -3.71493
C          0.22095       -0.53372       -2.65736
Cl         1.60846        0.48235        2.79941
Cl        -1.52248       -0.28104        2.89661
C         -1.21969       -0.63047       -4.72974
C          1.57791        1.33855       -4.45840
H         -0.74258        4.72424       -2.34474
H         -1.81382        3.17066       -0.76294
H          1.91386       -3.02095       -1.11973
H          0.97617       -4.30699       -3.00516
H          0.83074        3.85640       -4.02512
H         -0.48464       -3.18638       -4.63537
C         -3.66319       -3.33779       -1.88748
C         -2.71676       -3.46604       -0.87770
C         -2.06553       -2.31583       -0.45166
C         -2.36884       -1.09811       -1.00776
C         -3.30981       -0.98638       -2.00153
C         -3.98053       -2.11307       -2.46242
H         -4.18540       -4.21119       -2.22937
H         -1.32490       -2.36272        0.32789
H         -3.52665       -0.00906       -2.39864
C         -4.70240        2.58402        2.15961
C         -3.36958        2.96524        2.25877
C         -2.44004        2.29755        1.47090
C         -2.83669        1.28797        0.62926
C         -4.15733        0.92307        0.54848
C         -5.12155        1.56669        1.31072
H         -5.42502        3.08773        2.77361
H         -1.39318        2.54127        1.52800
H         -4.43986        0.11631       -0.10465
C          4.14849       -2.91223        2.46976
C          2.80209       -3.20803        2.29094
C          2.07973       -2.43347        1.39292
C          2.67850       -1.39574        0.72168
C          4.00758       -1.11378        0.91706
C          4.77205       -1.86739        1.79763
H          4.72194       -3.50147        3.15886
H          1.03056       -2.62211        1.23905
H          4.44848       -0.28342        0.39424
C          4.06270        3.36044       -1.43749
C          2.96451        3.50152       -0.59799
C          2.24558        2.35896       -0.27061
C          2.60555        1.14101       -0.79003
C          3.68331        1.01956       -1.63235
C          4.44881        2.13171       -1.96096
H          4.63615        4.23630       -1.67553
H          1.40048        2.40725        0.39412
H          3.93472        0.04763       -2.02360
Pd         0.00712        0.03461        1.28227
C         -0.99022       -5.26643       -0.77776
C         -2.36286       -4.82148       -0.24921
C         -3.40477       -5.90121       -0.60171
C         -2.31327       -4.68986        1.28638
H         -0.68183       -6.20996       -0.32791
H         -1.02104       -5.40094       -1.85869
H         -0.22999       -4.51850       -0.55769
H         -3.17549       -6.83897       -0.09564
H         -4.40436       -5.59307       -0.29542
H         -3.41788       -6.10460       -1.67212
H         -2.10864       -5.65299        1.75363
H         -1.53483       -3.99948        1.60582
H         -3.26427       -4.32307        1.67186
C         -4.80111       -3.00569       -4.66735
C         -5.09670       -2.02874       -3.51339
C         -5.22256       -0.60797       -4.09789
C         -6.43425       -2.40324       -2.84890
H         -4.77825       -4.03782       -4.32038
H         -5.56467       -2.93484       -5.44182
H         -3.83729       -2.78594       -5.12467
H         -5.48778        0.11354       -3.32561
H         -4.28982       -0.28909       -4.56158
H         -6.00035       -0.57138       -4.86052
H         -6.40776       -3.41905       -2.45586
H         -6.65426       -1.73073       -2.01997
H         -7.25601       -2.34100       -3.56206
C         -1.44933        4.36392        3.16837
C         -2.95677        4.05669        3.25610
C         -3.27425        3.57688        4.68382
C         -3.73385        5.35115        2.95358
H         -1.18129        4.70432        2.16889
H         -1.17183        5.14952        3.87095
H         -0.85336        3.48338        3.40789
H         -2.97422        4.32036        5.42200
H         -4.34014        3.39063        4.81012
H         -2.74482        2.64961        4.90244
H         -3.54169        5.68531        1.93413
H         -4.80785        5.20528        3.06163
H         -3.43762        6.15086        3.63223
C         -7.50534        1.93398        2.12590
C         -6.58571        1.11987        1.19609
C         -6.69217       -0.36792        1.58131
C         -7.06142        1.31251       -0.25595
H         -8.54008        1.60482        2.03110
H         -7.21499        1.81208        3.16925
H         -7.47299        2.99497        1.87885
H         -7.72545       -0.71094        1.53242
H         -6.10199       -0.99418        0.91312
H         -6.32963       -0.52891        2.59633
H         -6.46723        0.71779       -0.94852
H         -8.10327        1.01319       -0.36877
H         -6.97529        2.35722       -0.55401
C          1.51008       -5.34791        2.10264
C          2.08026       -4.30798        3.08227
C          0.93344       -3.67174        3.89185
C          3.02816       -5.02669        4.06124
H          2.30562       -5.79418        1.50625
H          0.99555       -6.14756        2.63521
H          0.79773       -4.88992        1.42002
H          1.31948       -2.91671        4.57623
H          0.20792       -3.18611        3.24080
H          0.40472       -4.42273        4.47832
H          2.49635       -5.79922        4.61656
H          3.84903       -5.50865        3.53055
H          3.44594       -4.32850        4.78631
C          7.01669       -1.79258        0.69371
C          6.25318       -1.51656        2.00041
C          6.88911       -2.35102        3.12904
C          6.38043       -0.02581        2.37140
H          8.07294       -1.54473        0.79714
H          6.94049       -2.84403        0.41733
H          6.61188       -1.20268       -0.12687
H          6.36356       -2.19847        4.07158
H          6.87234       -3.41425        2.89058
H          7.93018       -2.06608        3.28066
H          7.41932        0.24049        2.56513
H          6.01884        0.61811        1.57078
H          5.80135        0.19752        3.26716
C          2.40084        5.87607       -1.19097
C          2.60256        4.88148       -0.03251
C          3.74448        5.36754        0.87766
C          1.30375        4.83005        0.79506
H          1.62300        5.52528       -1.86803
H          2.10518        6.85589       -0.81637
H          3.31452        6.00431       -1.76981
H          3.90898        4.66580        1.69519
H          4.67808        5.46026        0.32379
H          3.51262        6.34116        1.30903
H          1.04318        5.82032        1.16831
H          0.47011        4.47337        0.19108
H          1.41337        4.17199        1.65682
C          6.46951        3.28767       -2.99551
C          5.69479        1.96414       -2.84440
C          5.27440        1.48193       -4.24363
C          6.63354        0.92473       -2.20348
H          5.85727        4.04879       -3.47883
H          6.79176        3.66578       -2.02542
H          7.36039        3.14621       -3.60736
H          6.14597        1.32032       -4.87776
H          4.72262        0.54414       -4.18902
H          4.63996        2.22128       -4.73082
H          6.15998       -0.05464       -2.15227
H          7.55147        0.81832       -2.78132
H          6.90457        1.22305       -1.19085
H         -0.67589       -0.44949       -5.65780
H          2.37818        2.06224       -4.61509
H         -1.60848        0.32430       -4.37312
H         -2.07322       -1.26726       -4.96290
H          1.07682        1.18338       -5.41460
H          2.03758        0.39568       -4.15878
