111
-148.55831930
P         -2.55513       -1.79942       -1.25033
P          0.22228       -0.51013       -0.44786
C         -1.31432       -1.47236       -2.52927
C         -0.08410       -0.96551       -2.16907
C         -3.49668       -3.35697       -1.58575
C         -3.04898       -4.48014       -0.67600
C         -1.59553       -1.72429       -3.85687
H         -2.56593       -2.10255       -4.13380
C         -0.63640       -1.47499       -4.82321
H         -0.85468       -1.67125       -5.86026
C          0.59878       -0.97381       -4.46019
H          1.34526       -0.77805       -5.21231
C          0.87352       -0.71413       -3.12983
H          1.82791       -0.30915       -2.83478
Pd        -1.43150       -1.61787        0.75219
Cl        -3.31269       -2.26675        1.79096
Cl        -0.24539       -1.37738        2.64145
C         -4.96042       -2.91835       -1.39350
C         -3.94242       -0.57451       -1.21364
H         -3.60823       -5.39831       -0.87032
H         -1.98571       -4.69591       -0.80539
H         -3.20411       -4.21617        0.37111
H         -5.25546       -3.12295       -0.35504
H         -5.62992       -3.53012       -2.01719
H         -4.06883       -0.29213       -0.15974
C         -5.14828       -1.40374       -1.69416
C         -3.63662        0.64058       -2.06202
H         -3.31066       -3.61486       -2.63603
H         -5.26868       -1.25780       -2.77646
H         -6.07727       -1.02587       -1.24076
H         -3.43992        0.35188       -3.09613
H         -4.47080        1.34592       -2.06590
H         -2.75356        1.16613       -1.69442
C         -1.22465        3.76293        0.19371
C         -0.83578        3.33864       -1.10276
C         -0.37182        2.04342       -1.25912
C         -0.33947        1.17313       -0.20189
C         -0.78995        1.55340        1.03387
C         -1.28894        2.82447        1.25522
O         -1.51800        5.13188        0.43282
C         -0.88951        4.26950       -2.32397
H         -0.02955        1.69267       -2.21672
H         -0.74554        0.83106        1.83026
C         -1.88927        3.15462        2.63075
C          4.59798       -0.74203        0.79163
C          4.15783        0.28709       -0.07965
C          2.81423        0.33231       -0.41338
C          1.94668       -0.64174        0.00790
C          2.38909       -1.69876        0.75848
C          3.71580       -1.79504        1.14497
O          5.90715       -0.69766        1.34079
C          5.10050        1.36247       -0.64298
H          2.42033        1.14687       -0.99694
H          1.67014       -2.43727        1.06772
C          4.16314       -3.00186        1.98439
C         -2.08439        5.23516       -2.22670
C          0.42496        5.05889       -2.41783
C         -1.06897        3.45923       -3.62824
C         -0.77740        3.65384        3.56531
C         -3.00189        4.21184        2.51281
C         -2.53321        1.89455        3.25584
C         -0.40220        5.89472        0.87464
H         -2.16141        5.85481       -3.11975
H         -3.01652        4.68198       -2.11589
H         -1.98746        5.90046       -1.37215
H          0.42329        5.71862       -3.28513
H          0.58179        5.66959       -1.53216
H          1.27469        4.38253       -2.50906
H         -0.18916        2.85841       -3.85415
H         -1.93051        2.79590       -3.55923
H         -1.22773        4.12410       -4.47696
H         -0.30411        4.55036        3.17186
H         -1.17335        3.88728        4.55329
H         -0.00391        2.89512        3.68223
H         -3.47016        4.39755        3.47909
H         -2.61326        5.15924        2.14829
H         -3.77416        3.87945        1.81986
H         -3.23769        1.43468        2.56320
H         -1.78655        1.14989        3.52706
H         -3.07597        2.14793        4.16604
H         -0.59847        6.29039        1.87088
H          0.49603        5.27638        0.89924
H         -0.24653        6.73601        0.19938
C          6.00168        0.03885        2.55384
C          6.52643        0.81179       -0.82654
C          4.61896        1.83147       -2.03546
C          5.11574        2.57275        0.30293
C          5.62737       -3.37341        1.68821
C          3.98941       -2.67186        3.47486
C          3.30737       -4.24603        1.65471
H          6.97010        0.53143        0.12532
H          6.51692       -0.07230       -1.46318
H          7.17732        1.55456       -1.28712
H          3.68060        2.38083       -1.97538
H          5.34993        2.49762       -2.49324
H          4.47719        0.98164       -2.70268
H          5.76899        3.35749       -0.07779
H          4.11459        2.98963        0.41093
H          5.46657        2.29488        1.29390
H          5.76671       -3.56609        0.62501
H          6.30569       -2.57330        1.97363
H          5.92350       -4.26714        2.23688
H          4.59353       -1.81475        3.76204
H          2.94951       -2.43289        3.69667
H          4.28320       -3.51538        4.09895
H          2.27794       -4.12721        1.98943
H          3.70408       -5.13083        2.15204
H          3.30104       -4.43946        0.58237
H          6.38424       -0.60673        3.34425
H          6.69704        0.86827        2.42633
H          5.02302        0.42516        2.84144
