115
-277.94259852
P         -2.01945       -0.46919       -0.08373
P          1.62225        0.63249       -0.29378
C         -1.90339       -2.25923        0.10520
C         -0.69810       -2.86781        0.38582
H          0.15590       -2.28204        0.68170
C         -0.57107       -4.23250        0.23251
H          0.38667       -4.71768        0.34203
C         -1.64865       -4.98822       -0.19657
C         -2.88642       -4.38314       -0.34412
H         -3.71856       -4.97365       -0.69168
C         -3.01656       -3.01941       -0.18004
H         -3.96427       -2.53669       -0.36292
C         -3.53283        0.13250        0.68877
C         -4.16865       -0.57873        1.68017
H         -3.75291       -1.51424        2.01832
C         -5.31684       -0.07705        2.25950
H         -5.82217       -0.61033        3.04925
C         -5.83600        1.13258        1.84194
C         -5.18901        1.84071        0.84752
H         -5.59885        2.78866        0.53568
C         -4.03884        1.34212        0.27307
H         -3.53719        1.89371       -0.50507
C         -1.89378        0.15944       -1.79359
C         -1.35424        1.43328       -1.83484
H         -1.01764        1.88921       -0.91881
C         -1.08566        2.07109       -3.04629
C         -1.58449        1.48945       -4.20514
H         -1.42388        1.97849       -5.15143
C         -2.12743        0.22115       -4.17247
H         -2.39002       -0.26272       -5.09793
C         -2.18344       -0.51287       -2.98752
C          1.28941        0.16016       -2.02666
C          0.74032       -1.10529       -2.09211
H          0.52339       -1.62460       -1.17643
C          0.30690       -1.65439       -3.29793
C          0.64761       -0.98672       -4.46743
H          0.35929       -1.40572       -5.41697
C          1.19933        0.27786       -4.41331
H          1.33859        0.83007       -5.32728
C          1.41951        0.92278       -3.19543
C         -2.22022       -2.01967       -3.11240
H         -2.86514       -2.28500       -3.95774
H         -2.73091       -2.43881       -2.24819
C         -0.79979       -2.67525       -3.29660
H         -0.60505       -3.41211       -2.51053
H         -0.75734       -3.25704       -4.22438
C          0.01477        3.09471       -3.13612
H         -0.05382        3.77602       -2.28231
H         -0.15839        3.73862       -4.00599
C          1.44173        2.43584       -3.21502
H          1.95825        2.77301       -4.12141
H          2.07663        2.80627       -2.41320
C          2.15438        2.34668       -0.19992
C          1.23940        3.33827        0.07851
C          3.42810        2.66320       -0.62329
C          1.55906        4.65315       -0.18917
C          3.73953        3.97806       -0.91049
C          2.78208        4.97086       -0.75743
C          2.97438       -0.36933        0.35960
C          3.64786       -1.22398       -0.48304
C          3.34922       -0.26580        1.67795
C          4.69459       -1.98379       -0.00123
H          3.35846       -1.29315       -1.51876
C          4.39342       -1.02350        2.16103
H          2.82357        0.41060        2.33098
C          5.06867       -1.89179        1.32474
H          5.24005       -2.65529       -0.64524
H          4.70174       -0.94833        3.19225
Pd        -0.19253        0.31780        1.16704
Cl        -1.57340       -0.16537        2.87610
Cl         1.11745        1.59011        2.49367
H          4.68406        4.22741       -1.36682
H          4.13653        1.87572       -0.82868
H          0.82327        5.43530       -0.08223
H          0.25852        3.08409        0.44528
C         -2.61304       -7.27290       -0.72088
C         -1.37231       -6.33744       -0.80989
C         -0.93440       -6.05373       -2.28113
F         -3.59292       -6.79847       -1.50245
F         -2.26029       -8.50847       -1.10846
F         -3.02082       -7.28757        0.55679
F         -0.35696       -6.93365       -0.18027
F         -0.77577       -7.20814       -2.94242
F         -1.85991       -5.28433       -2.87038
F          0.22046       -5.37596       -2.23125
C         -6.67755        2.89848        3.38782
C         -7.07573        1.68721        2.49634
C         -8.12216        2.07002        1.40843
F         -5.83437        2.44578        4.32818
F         -6.06135        3.81981        2.63305
F         -7.77672        3.41290        3.95969
F         -7.63149        0.76436        3.28624
F         -7.65463        3.09117        0.67697
F         -8.30177        0.99582        0.62521
F         -9.27657        2.40656        2.00385
C          7.45841       -1.75701        2.01345
C          6.23567       -2.70074        1.83058
C          5.84543       -3.43227        3.14860
F          8.49987       -2.46042        2.48297
F          7.75074       -1.24188        0.80957
F          7.13226       -0.77016        2.86101
F          6.57105       -3.63292        0.93435
F          6.82417       -4.28581        3.48677
F          5.65057       -2.53063        4.12102
F          4.70648       -4.10207        2.91611
C          4.35005        6.73226       -1.69613
C          2.87544        6.26701       -1.52404
C          2.16112        6.00275       -2.88852
F          4.91581        6.75088       -0.48017
F          5.00526        5.87094       -2.48659
F          4.36262        7.96316       -2.23103
F          2.20775        7.23090       -0.88549
F          0.87121        5.75454       -2.62386
F          2.28040        7.07582       -3.68160
F          2.70119        4.91868       -3.46237
