111
-148.55783962
P         -2.32877       -2.35150       -0.42251
P         -0.01944       -0.17666       -0.56086
C         -1.54203       -1.97381       -2.00791
C         -0.55228       -1.01737       -2.06339
C         -2.50048       -4.17229       -0.15280
C         -1.50647       -4.65777        0.88005
C         -1.93527       -2.62799       -3.15747
H         -2.71521       -3.37037       -3.10676
C         -1.32981       -2.32162       -4.36409
H         -1.63538       -2.83159       -5.26306
C         -0.33625       -1.36263       -4.41743
H          0.13548       -1.12460       -5.35655
C          0.05368       -0.70764       -3.26268
H          0.82997        0.04126       -3.28532
Pd        -1.15592       -1.19271        1.18036
Cl        -2.65049       -1.87694        2.70841
Cl         0.06908       -0.02138        2.65134
C         -3.97678       -4.32136        0.26076
C         -4.10554       -1.83958       -0.36055
H         -1.60708       -5.73106        1.05804
H         -0.47852       -4.45985        0.56599
H         -1.66113       -4.14899        1.83349
H         -4.03893       -4.29607        1.35749
H         -4.35999       -5.31012       -0.03408
H         -4.23306       -1.30743        0.59155
C         -4.85677       -3.18392       -0.33135
C         -4.46064       -0.94590       -1.52992
H         -2.32118       -4.65171       -1.12378
H         -5.15268       -3.44644       -1.35629
H         -5.79808       -3.08352        0.23001
H         -4.33271       -1.47547       -2.47555
H         -5.49905       -0.61037       -1.47700
H         -3.81737       -0.06382       -1.56395
C         -1.22396        4.21441       -0.49466
C         -0.00487        3.83618       -1.11381
C          0.34765        2.49632       -1.10849
C         -0.49045        1.54943       -0.57986
C         -1.72177        1.89707       -0.08745
C         -2.13414        3.21879       -0.05733
O         -1.51392        5.58969       -0.28827
C          0.93558        4.86313       -1.76487
H          1.29068        2.17211       -1.51317
H         -2.35837        1.11747        0.29307
C         -3.53209        3.54866        0.49008
C          4.34057       -1.04847        0.41875
C          3.77587        0.19479        0.80251
C          2.44760        0.43576        0.49312
C          1.71545       -0.46660       -0.23201
C          2.28482       -1.62638       -0.69005
C          3.60919       -1.92869       -0.41914
O          5.61736       -1.43233        0.90820
C          4.56028        1.25846        1.58581
H          1.95396        1.32532        0.84382
H          1.66939       -2.30514       -1.25533
C          4.21543       -3.21463       -1.00223
C          1.88336        5.44002       -0.70292
C          1.78737        4.20300       -2.87252
C          0.13202        5.99654       -2.42822
C         -4.52407        2.40349        0.18466
C         -3.44664        3.72656        2.01379
C         -4.10564        4.81792       -0.16572
C         -1.06793        6.09635        0.96356
H          2.57926        6.15189       -1.14617
H          1.33349        5.95410        0.08085
H          2.46451        4.64714       -0.23458
H          2.50365        3.49390       -2.45977
H          1.15477        3.67778       -3.58770
H          2.35881        4.95273       -3.41933
H         -0.57026        5.59343       -3.15712
H         -0.43706        6.56079       -1.69318
H          0.79123        6.69547       -2.94240
H         -5.53770        2.68386        0.47013
H         -4.52974        2.17201       -0.87985
H         -4.27830        1.49676        0.73516
H         -4.42408        3.95831        2.43592
H         -3.08180        2.81515        2.48706
H         -2.76513        4.53089        2.27994
H         -5.12167        5.01128        0.17752
H         -3.50758        5.69405        0.07018
H         -4.12834        4.71215       -1.24983
H         -1.92423        6.40061        1.56481
H         -0.49871        5.33651        1.50062
H         -0.44214        6.97329        0.79810
C          5.57324       -2.13647        2.14313
C          6.05989        1.21662        1.24033
C          4.05822        2.67513        1.22643
C          4.35461        1.02992        3.09095
C          5.72181       -3.04598       -1.27137
C          3.97841       -4.37670       -0.02586
C          3.55305       -3.56380       -2.35482
H          6.51079        0.27373        1.53872
H          6.20964        1.33333        0.16752
H          6.60115        2.01503        1.74737
H          4.68991        3.43731        1.68211
H          4.07566        2.82680        0.14751
H          3.04365        2.84677        1.58262
H          4.88623        1.77936        3.67664
H          3.29699        1.08744        3.34747
H          4.71405        0.04903        3.39303
H          6.27306       -2.87591       -0.34992
H          6.13748       -3.93538       -1.74431
H          5.90119       -2.19643       -1.92944
H          4.44912       -4.18605        0.93560
H          2.91257       -4.52098        0.14990
H          4.38477       -5.30752       -0.42068
H          2.51209       -3.85866       -2.23085
H          4.06631       -4.39778       -2.83298
H          3.59001       -2.71353       -3.03538
H          4.54057       -2.26674        2.46938
H          6.04326       -3.11259        2.02414
H          6.12604       -1.58249        2.90158
