105
-153.06677500
Cl        -1.06136        2.49945       -2.64873
Pd         0.08178        1.48250       -0.99878
P          1.39248        0.77216        0.79312
N          0.51337       -0.37476        1.79032
C         -0.00740       -1.64755        1.59786
C         -0.12000       -2.28614        0.33713
C         -0.78655       -3.52602        0.24544
C         -0.90788       -4.18462       -1.10780
C         -1.95630       -5.30609       -1.16798
C         -1.82337       -6.24259        0.03644
C         -2.00706       -5.47103        1.35247
C         -1.28914       -4.14474        1.39204
C         -1.13043       -3.52037        2.62160
C         -0.50946       -2.30294        2.72234
H         -0.42505       -1.82177        3.68130
H         -1.52371       -3.99765        3.50325
H         -3.07432       -5.29353        1.53024
H         -2.54089       -7.07235       -0.03446
H         -2.96070       -4.86442       -1.17434
H         -1.14325       -3.41626       -1.85434
C          0.60807       -1.80059       -0.85999
C         -0.09157       -1.17277       -1.92928
C          0.60057       -0.92674       -3.11991
C          1.92248       -1.26575       -3.25264
C          2.61347       -1.90308       -2.22886
C          4.04574       -2.31088       -2.48710
C          4.73884       -3.04970       -1.32723
C          3.74937       -3.90026       -0.52551
C          2.61833       -3.02332        0.02877
C          1.94750       -2.19311       -1.03685
H          1.87106       -3.64767        0.53350
H          4.26050       -4.44119        0.28352
H          5.20439       -2.32073       -0.65442
H          4.61723       -1.41431       -2.75857
H          2.44014       -1.05067       -4.17212
H          0.08578       -0.43332       -3.92551
N         -1.42718       -0.75909       -1.82043
P         -1.87345        0.21937       -0.41608
C         -2.82953       -0.76183        0.73975
C         -2.96132       -0.38517        2.05474
C         -3.74929       -1.14057        2.90415
C         -4.42444       -2.26038        2.43536
C         -4.29252       -2.61093        1.09854
C         -3.50029       -1.85687        0.25199
H         -3.38950       -2.12026       -0.78791
H         -4.80737       -3.47990        0.72610
C         -5.23518       -3.09888        3.36065
H         -3.84088       -0.86642        3.94122
H         -2.44471        0.49047        2.41212
C         -2.99420        1.55116       -0.85188
C         -2.91732        2.73622       -0.15878
C         -3.78482        3.76769       -0.46910
C         -4.74122        3.61104       -1.46350
C         -4.80399        2.40367       -2.14678
C         -3.93523        1.37293       -1.83664
H         -3.98926        0.43041       -2.35718
H         -5.53571        2.27687       -2.92625
C         -5.65327        4.73259       -1.82067
H         -3.71953        4.70455        0.05729
H         -2.17275        2.85423        0.61303
H         -1.79084       -0.25967       -2.62252
H          0.66660       -0.08776        2.74916
C          1.31537        2.33978        1.66479
C          2.35198        3.23930        1.59302
C          2.24277        4.46246        2.22885
C          1.08999        4.79654        2.92747
C          0.05449        3.87331        2.98902
C          0.16715        2.64959        2.35439
H         -0.63740        1.93316        2.38882
H         -0.84066        4.11877        3.53454
C          0.98274        6.10747        3.62580
H          3.05283        5.17000        2.18070
H          3.23662        2.98560        1.03173
C          3.12394        0.28965        0.79981
C          3.61966       -0.30227        1.93797
C          4.95861       -0.64386        2.01263
C          5.81301       -0.38646        0.94952
C          5.30075        0.23490       -0.18105
C          3.96223        0.56794       -0.25280
H          3.56950        1.06713       -1.12099
H          5.95782        0.45866       -1.00407
C          7.25754       -0.73694        1.03650
H          5.34853       -1.11131        2.90060
H          2.95557       -0.49923        2.76420
Cl         2.00781        2.35529       -1.76970
H         -1.66811       -6.08110        2.19957
H         -1.87544       -5.86751       -2.10950
H         -0.83066       -6.71007        0.02360
H          0.07438       -4.57943       -1.39310
H          3.32301       -4.67356       -1.17678
H          3.01049       -2.35744        0.80294
H          4.06100       -2.94516       -3.38168
H          5.56753       -3.66793       -1.70006
H         -4.61954       -3.87420        3.81893
H         -5.66890       -2.49667        4.16018
H         -6.05489       -3.58829        2.83283
H         -5.86071        5.36271       -0.95466
H         -5.20924        5.35982       -2.59481
H         -6.60785        4.36032       -2.19517
H          1.43646        6.05705        4.61649
H          1.48778        6.89409        3.06347
H         -0.05941        6.40587        3.74778
H          7.68511       -0.89730        0.04571
H          7.82128        0.06138        1.52101
H          7.40558       -1.65173        1.61221
