45
-71.81604013
C          0.43887        1.80791        3.02376
P         -0.18051        0.84348        1.60336
P         -0.06324        0.73468       -1.54799
C          0.71964        1.70072       -2.88304
Cl         2.99443        0.13326        1.77432
H         -0.36566        2.00302        3.72697
H         -0.00125        1.90380       -3.66966
Cl         2.97976       -0.35125       -1.45701
C         -1.39401        1.76245        0.64028
C         -1.34575        1.70985       -0.73513
C         -2.28496        2.38465       -1.48830
C         -3.27848        3.11192       -0.85669
C         -3.33063        3.15809        0.52301
C         -2.38766        2.47916        1.27467
H         -2.23826        2.33616       -2.56430
H         -4.01334        3.63957       -1.44215
H         -4.10711        3.72046        1.01497
H         -2.42424        2.49770        2.35192
Pd         1.50367        0.29360        0.10796
H          1.55071        1.14096       -3.30262
H          0.84185        2.75465        2.67561
H          1.09112        2.64232       -2.48887
C         -1.65858       -3.25916       -3.02040
C         -2.53771       -2.22182       -2.77750
C         -2.05808       -0.99801       -2.34726
C         -0.70548       -0.82193       -2.16357
C          0.17308       -1.85268       -2.40395
C         -0.30220       -3.07698       -2.83527
H         -2.03205       -4.21333       -3.35464
H         -3.59619       -2.36568       -2.91961
H         -2.73319       -0.18361       -2.14121
H          1.22613       -1.69115       -2.23729
H          0.38424       -3.88642       -3.02180
C         -1.94387       -3.21509        2.64508
C         -1.44903       -2.42255        3.66285
C         -0.90864       -1.18216        3.37384
C         -0.86945       -0.74518        2.06949
C         -1.36101       -1.53113        1.05419
C         -1.90035       -2.77186        1.33815
H         -2.36249       -4.18216        2.87122
H         -1.48147       -2.77077        4.68219
H         -0.51565       -0.55727        4.15894
H         -1.30676       -1.17247        0.04118
H         -2.28008       -3.38899        0.54059
H          1.22636        1.25640        3.52943
