171
-217.84480618
P         -1.58355        0.37892       -0.44965
P          1.61498       -0.32964       -0.30434
C         -0.84111        1.40700       -1.72187
C          1.01965       -1.23861       -1.73337
C          0.01660        0.85544       -2.66621
C          0.64962        1.71147       -3.58740
C          0.37366        3.06835       -3.55321
C         -0.50169        3.59184       -2.62594
C         -1.10149        2.75578       -1.70522
C          1.28983       -2.58379       -1.79722
C          0.79559       -3.34280       -2.83985
C          0.00802       -2.74810       -3.80257
C         -0.27697       -1.39369       -3.75618
C          0.25782       -0.61246       -2.71326
Cl         1.44065        0.32350        2.92105
Cl        -1.71149       -0.41489        2.74816
C         -1.14817       -0.79843       -4.80683
C          1.58498        1.17631       -4.61390
H         -0.71576        4.64811       -2.61764
H         -1.78122        3.15860       -0.97238
H          1.88833       -3.04299       -1.02672
H          1.01888       -4.39562       -2.89600
H          0.85174        3.71749       -4.26731
H         -0.39857       -3.33913       -4.60594
C         -3.64472       -3.37791       -1.89424
C         -2.70608       -3.47627       -0.87422
C         -2.06107       -2.31407       -0.47363
C         -2.35244       -1.11350       -1.07142
C         -3.28426       -1.03078       -2.07674
C         -3.95415       -2.17020       -2.50827
H         -4.16767       -4.25997       -2.21232
H         -1.33838       -2.34052        0.32392
H         -3.49343       -0.06619       -2.50716
C         -4.58309        2.69707        2.04446
C         -3.24418        3.06712        2.09305
C         -2.35019        2.36796        1.29357
C         -2.77846        1.32670        0.50820
C         -4.10165        0.96318        0.48692
C         -5.03607        1.65034        1.25077
H         -5.29711        3.22748        2.64577
H         -1.30483        2.62568        1.29455
H         -4.39741        0.12815       -0.12234
C          4.21348       -2.93248        2.36007
C          2.84787       -3.18237        2.30766
C          2.07536       -2.40001        1.45845
C          2.64912       -1.39265        0.72169
C          3.99820       -1.15169        0.79869
C          4.81136       -1.91844        1.62187
H          4.81998       -3.54324        3.00184
H          1.01308       -2.55498        1.38471
H          4.42052       -0.34948        0.21992
C          3.92930        3.47220       -1.12646
C          2.85375        3.50742       -0.24693
C          2.14317        2.33270       -0.04465
C          2.49367        1.18044       -0.70272
C          3.55491        1.16253       -1.57477
C          4.30778        2.31080       -1.79179
H          4.49434        4.36985       -1.28681
H          1.31915        2.31203        0.64800
H          3.80876        0.24077       -2.07119
Pd        -0.06569        0.01997        1.28341
C         -0.91197       -5.16611       -0.43683
C         -2.38116       -4.79882       -0.16631
C         -3.27319       -5.95107       -0.66676
C         -2.60997       -4.63190        1.34836
H         -0.63007       -6.07553        0.09350
H         -0.75061       -5.33318       -1.50117
H         -0.24185       -4.36828       -0.12073
H         -3.03972       -6.87652       -0.14038
H         -4.32745       -5.73179       -0.49853
H         -3.12226       -6.13140       -1.73093
H         -3.64564       -4.36109        1.55236
H         -2.39153       -5.55727        1.88098
H         -1.97603       -3.85045        1.76438
C         -6.39813       -2.50995       -2.92821
C         -5.05675       -2.11953       -3.57597
C         -4.72781       -3.10706       -4.71170
C         -5.19938       -0.70850       -4.17950
H         -6.36143       -3.52070       -2.52326
H         -6.64317       -1.83213       -2.11112
H         -7.20929       -2.46991       -3.65498
H         -5.48503       -3.06524       -5.49448
H         -3.76480       -2.87404       -5.16366
H         -4.68551       -4.13271       -4.34760
H         -5.48240        0.01768       -3.41772
H         -4.26774       -0.38059       -4.63924
H         -5.97087       -0.69352       -4.94923
C         -2.41436        5.42467        2.06709
C         -2.73565        4.22108        2.96876
C         -1.46305        3.78184        3.72200
C         -3.78674        4.64529        4.01293
H         -3.30804        5.76389        1.54360
H         -2.02521        6.25900        2.65039
H         -1.67083        5.16104        1.31667
H         -0.64278        3.57285        3.03738
H         -1.12659        4.56052        4.40616
H         -1.65207        2.87947        4.30304
H         -3.38879        5.41847        4.67007
H         -4.67795        5.05160        3.53556
H         -4.08159        3.79948        4.63387
C         -7.36812        2.48716        0.84727
C         -6.52261        1.26696        1.25672
C         -6.91918        0.80875        2.67165
C         -6.81642        0.11984        0.26921
H         -8.42796        2.23469        0.81771
H         -7.24271        3.31130        1.54838
H         -7.07790        2.84148       -0.14170
H         -6.77431        1.60580        3.40003
H         -7.96671        0.51000        2.70646
H         -6.31382       -0.04232        2.98313
H         -6.26476       -0.78112        0.53720
H         -7.87696       -0.13144        0.27178
H         -6.54602        0.40175       -0.74825
C          2.77044       -5.64821        2.74399
C          2.23522       -4.27732        3.19263
C          0.69765       -4.29120        3.09562
C          2.61780       -4.02039        4.66271
H          2.34631       -6.44985        3.34840
H          2.51401       -5.83864        1.70186
H          3.85499       -5.69686        2.83586
H          0.27345       -5.04683        3.75659
H          0.27802       -3.32668        3.38152
H          0.37457       -4.52426        2.08290
H          2.28053       -3.03333        4.97868
H          2.16020       -4.75991        5.31956
H          3.69584       -4.06926        4.80961
C          6.94592       -1.92407        0.31533
C          6.31594       -1.61966        1.68570
C          7.02341       -2.47514        2.75430
C          6.52782       -0.13404        2.03732
H          6.81058       -2.97334        0.05365
H          6.48665       -1.32421       -0.46867
H          8.01471       -1.71086        0.31943
H          6.59472       -2.30110        3.74112
H          6.94420       -3.53743        2.52435
H          8.08404       -2.22938        2.80600
H          6.10325        0.52124        1.27802
H          6.05355        0.10662        2.98851
H          7.58908        0.09970        2.11993
C          1.01638        5.16715        0.11991
C          2.44575        4.76990        0.52526
C          3.38626        5.95313        0.22797
C          2.49237        4.47687        2.03731
H          0.31412        4.36001        0.32220
H          0.68476        6.04909        0.66754
H          0.96908        5.39284       -0.94483
H          4.41297        5.71771        0.50767
H          3.36616        6.21443       -0.82990
H          3.08497        6.83659        0.79078
H          1.80558        3.67648        2.30899
H          3.49409        4.17194        2.33910
H          2.21868        5.35961        2.61486
C          6.49106        1.14471       -2.20719
C          5.54282        2.25194       -2.70493
C          6.31672        3.58480       -2.70644
C          5.10350        1.94188       -4.14533
H          6.77985        1.32149       -1.17134
H          6.01802        0.16549       -2.26403
H          7.39899        1.10836       -2.80896
H          7.20185        3.51677       -3.33886
H          5.70084        4.39721       -3.09166
H          6.64832        3.84628       -1.70166
H          4.44129        2.72174       -4.51991
H          5.96410        1.88396       -4.81158
H          4.57604        0.99035       -4.19907
H         -1.45814        0.21430       -4.54608
H          2.33117        1.92187       -4.88875
H         -2.05156       -1.39346       -4.93935
H         -0.63187       -0.75933       -5.76695
H          1.04978        0.89602       -5.52170
H          2.11242        0.29509       -4.24586
