72
-98.09670235
Fe        -0.00140        2.86811       -0.01615
P          1.82993        0.00730       -0.02234
P         -1.75304       -0.04470        0.04494
C          1.39406        1.63263        0.70713
C          0.38281        1.86375        1.72373
C          0.32434        3.29100        1.98143
C          1.32208        3.93788        1.14865
C          2.00807        2.91125        0.38268
C         -1.39359        1.58911       -0.70175
C         -2.01585        2.85912       -0.36072
C         -1.38007        3.89777       -1.15373
C         -0.38632        3.26935       -2.00486
C         -0.40192        1.84365       -1.73016
C          3.20232       -0.71000        1.00466
C          4.39131        0.14312        0.53120
C          2.85814        0.29900       -1.54656
C          4.28691        0.49477       -0.98193
C         -2.96774       -0.89518       -1.06420
C         -4.27574       -0.17457       -0.70288
C         -2.92126        0.21054        1.47162
C         -4.31442        0.24720        0.79624
H         -0.23871        1.09927        2.18684
H         -0.34121        3.78750        2.69114
H          1.54231        5.00759        1.12660
H          2.81490        3.07136       -0.33514
H         -2.81308        3.00491        0.37093
H          0.21370        1.08649       -2.21370
Cl         1.64343       -3.08680       -0.32536
Cl        -1.45448       -3.11940        0.53029
Pd         0.06312       -1.52850        0.05211
H          3.34065       -1.75027        0.68793
C          2.94633       -0.64828        2.51170
H          2.48883        1.21713       -2.01850
C          2.78891       -0.86570       -2.53330
H          5.34285       -0.36358        0.75608
H          4.40610        1.06804        1.12643
H          4.63565        1.52251       -1.16151
H          4.97879       -0.14196       -1.55075
H         -1.62611        4.96184       -1.13225
H          0.25068        3.77571       -2.73358
H          3.91070       -0.60737        3.03710
H          3.59329       -0.75380       -3.27379
H         -3.01686       -1.94644       -0.75841
C         -2.56617       -0.78988       -2.52942
H         -2.67017        1.17916        1.92028
C         -2.82460       -0.89087        2.52499
H         -5.14461       -0.80067       -0.95819
H         -4.36270        0.71761       -1.33996
H         -4.76575        1.24499        0.90058
H         -4.98719       -0.42613        1.34547
H         -2.49463        0.27090       -2.80345
H         -2.93504       -1.86105        2.02386
C          2.13669       -1.82709        3.02974
H          1.19239       -1.92684        2.49728
H          2.67454       -2.76644        2.88795
H          1.90908       -1.73533        4.09411
C          1.45771       -1.00185       -3.25219
H          1.23030       -0.11150       -3.84126
H          1.44748       -1.85500       -3.93439
H          0.64203       -1.14627       -2.54557
C         -3.52440       -1.51361       -3.46298
H         -3.21077       -1.44323       -4.50701
H         -3.59267       -2.57353       -3.21091
H         -4.53247       -1.10084       -3.39544
C         -1.54288       -0.86011        3.33801
H         -1.44451        0.07616        3.89065
H         -1.49824       -1.67523        4.06392
H         -0.67064       -0.95248        2.69344
H          2.44994        0.30105        2.75010
H          3.02399       -1.79157       -1.99241
H         -1.55110       -1.18893       -2.65157
H         -3.68819       -0.81679        3.20067
