87
-129.18219264
P         -1.53467       -0.24121       -0.41960
P          1.71291        0.27692        0.25545
C         -1.08369        1.01945       -1.61623
C          1.50241       -0.79885       -1.18636
C          0.01305        0.78612       -2.43570
C          0.37619        1.76577       -3.38126
C         -0.38411        2.92013       -3.47778
C         -1.47530        3.12720       -2.65895
C         -1.82317        2.17129       -1.72488
C          2.10932       -2.02546       -1.04897
C          1.99602       -2.97836       -2.04279
C          1.25580       -2.69943       -3.17046
C          0.61779       -1.48036       -3.32236
C          0.74810       -0.50060       -2.31913
Cl         0.98995       -0.37503        3.35915
Cl        -1.66905       -1.94040        2.34557
H         -2.05185        4.03367       -2.74397
H         -2.67608        2.32016       -1.08393
H          2.66955       -2.23881       -0.15061
H          2.47581       -3.93680       -1.93102
H         -0.10652        3.66716       -4.20190
H          1.15288       -3.44219       -3.94335
C         -2.50648       -4.09481       -2.62130
C         -1.69450       -4.14709       -1.49671
C         -1.41810       -2.96369       -0.82334
C         -1.94086       -1.77086       -1.26460
C         -2.75476       -1.72843       -2.37224
C         -3.04083       -2.89692       -3.05379
H         -2.71652       -5.00416       -3.15817
C         -1.09069       -5.43021       -1.04632
H         -0.78927       -2.97949        0.05042
H         -3.14948       -0.78102       -2.70463
H         -3.67233       -2.87033       -3.92664
C         -5.15112        1.11226        2.00351
C         -5.22396       -0.03230        1.23514
C         -4.12859       -0.43600        0.49579
C         -2.97256        0.30843        0.52363
C         -2.89782        1.44796        1.29052
C         -3.98553        1.86483        2.04771
H         -6.00297        1.42854        2.58107
H         -6.13123       -0.61360        1.21537
H         -4.16787       -1.33509       -0.09711
H         -1.98868        2.02298        1.30062
C         -3.90033        3.10158        2.87107
C          6.08672       -0.07566        1.48450
C          5.74374        0.12899        0.16264
C          4.41223        0.22747       -0.19744
C          3.43484        0.12157        0.76545
C          3.77789       -0.08185        2.08040
C          5.10820       -0.19206        2.46148
H          7.12279       -0.14670        1.76894
H          6.51220        0.21322       -0.58823
H          4.12954        0.38016       -1.22721
H          3.00180       -0.16260        2.81977
C          5.47308       -0.38986        3.89089
C          0.84558        4.71534       -0.21954
C          1.71639        4.09214       -1.09115
C          1.98841        2.74466       -0.94724
C          1.37877        2.03120        0.05726
C          0.54105        2.65800        0.95143
C          0.25657        4.01212        0.82189
H          0.62199        5.76205       -0.33657
H          2.17650        4.65213       -1.88869
H          2.66165        2.24199       -1.62239
H          0.13844        2.10066        1.78004
C         -0.67780        4.69000        1.76032
Pd        -0.14675       -0.56338        1.44076
C          1.55891        1.59014       -4.26844
C         -0.20372       -1.24319       -4.54231
H          1.24883        1.39229       -5.29525
H          2.17820        2.48831       -4.27272
H          2.18559        0.76042       -3.93927
H          0.43023       -1.01591       -5.40015
H         -0.79686       -2.12508       -4.78833
H         -0.89644       -0.41259       -4.40355
H         -0.12920       -5.59692       -1.53404
H         -0.92498       -5.42837        0.03199
H         -1.73977       -6.27506       -1.28065
H         -2.97063        3.12562        3.44120
H         -3.93555        3.99096        2.24047
H         -4.72507        3.16254        3.58242
H          5.62690        0.56923        4.38731
H          4.68652       -0.92322        4.42674
H          6.39152       -0.97078        3.98629
H         -0.33524        5.69907        1.99381
H         -1.67493        4.76545        1.32459
H         -0.75863        4.14275        2.70045
