105
-153.07285219
Cl        -0.86313        2.06244       -2.83899
Pd         0.07671        1.50167       -0.86949
P          1.38064        0.73475        0.89353
N          0.66529       -0.51545        1.89796
C          0.04390       -1.73315        1.65868
C         -0.10400       -2.31263        0.37418
C         -0.84672       -3.50292        0.23104
C         -0.99186       -4.10185       -1.14874
C         -1.53932       -5.53771       -1.16973
C         -2.69791       -5.70044       -0.18164
C         -2.23989       -5.37568        1.24813
C         -1.41826       -4.11544        1.34812
C         -1.21786       -3.55691        2.60326
C         -0.50364       -2.39720        2.75606
H         -0.38515       -1.96391        3.73402
H         -1.64915       -4.03996        3.46372
H         -3.10786       -5.28627        1.91401
H         -3.51388       -5.02444       -0.46616
H         -1.85159       -5.82155       -2.18466
H         -1.64595       -3.44938       -1.73895
C          0.66449       -1.83021       -0.79871
C         -0.00807       -1.22390       -1.89500
C          0.70957       -0.99951       -3.07336
C          2.02478       -1.37027       -3.18204
C          2.68239       -2.00601       -2.13611
C          4.09272       -2.48796       -2.35152
C          4.43390       -3.70694       -1.48352
C          4.10829       -3.42032       -0.01475
C          2.62809       -3.04406        0.18060
C          2.00416       -2.23941       -0.93860
H          2.03727       -3.95896        0.30901
H          4.74355       -2.59922        0.33498
H          5.48815       -3.99417       -1.60452
H          4.78570       -1.66879       -2.13108
H          2.55898       -1.18627       -4.09871
H          0.21559       -0.51164       -3.89514
N         -1.35123       -0.83091       -1.83111
P         -1.87140        0.18730       -0.48506
C         -2.81381       -0.73352        0.72891
C         -3.58569       -1.78234        0.29080
C         -4.37314       -2.47849        1.19032
C         -4.39886       -2.11709        2.53051
C         -3.62161       -1.04513        2.94926
C         -2.83830       -0.34763        2.04774
H         -2.24007        0.48798        2.36991
H         -3.62934       -0.76343        3.98833
C         -5.20679       -2.89455        3.50997
H         -4.96906       -3.31053        0.85661
H         -3.56243       -2.05367       -0.75275
C         -2.99713        1.47482       -1.03560
C         -2.97229        2.70457       -0.42089
C         -3.84100        3.69658       -0.83753
C         -4.74766        3.45751       -1.86149
C         -4.75881        2.20729       -2.46544
C         -3.88842        1.21621       -2.04868
H         -3.90264        0.24164       -2.50952
H         -5.45100        2.01574       -3.26748
C         -5.66058        4.53540       -2.33285
H         -3.81600        4.66659       -0.37109
H         -2.26982        2.88744        0.37695
H         -1.69965       -0.36676       -2.66006
H          0.86495       -0.27341        2.86096
C          1.33484        2.23467        1.88176
C          2.46681        2.98085        2.10783
C          2.38421        4.14738        2.84551
C          1.16568        4.57866        3.35283
C          0.03464        3.80831        3.11836
C          0.12050        2.64144        2.38073
H         -0.75610        2.04647        2.18404
H         -0.91394        4.12877        3.51416
C          1.08033        5.82459        4.16403
H          3.26819        4.73425        3.02797
H          3.40888        2.65471        1.69870
C          3.11063        0.37255        0.59663
C          3.72393        0.72631       -0.58119
C          5.07568        0.49374       -0.75124
C          5.82714       -0.07970        0.26526
C          5.19385       -0.41828        1.45349
C          3.83905       -0.18970        1.61822
H          3.34499       -0.44284        2.54296
H          5.76644       -0.86735        2.24697
C          7.27459       -0.36730        0.06797
H          5.55745        0.76405       -1.67539
H          3.14854        1.20695       -1.35430
Cl         1.71405        3.01561       -1.16858
H         -1.64949       -6.20969        1.64589
H         -0.73644       -6.23670       -0.90360
H         -3.12068       -6.71357       -0.23807
H         -0.01770       -4.06806       -1.65253
H          4.37565       -4.28036        0.61512
H          2.50256       -2.48829        1.11761
H          4.23966       -2.72042       -3.41398
H          3.84935       -4.57097       -1.82389
H         -4.60859       -3.68714        3.96168
H         -5.57692       -2.25357        4.31134
H         -6.07048       -3.35695        3.03013
H         -5.19618        5.11208       -3.13386
H         -6.59513        4.12140       -2.71400
H         -5.90925        5.22314       -1.52339
H          0.09864        6.29055        4.06793
H          1.25018        5.61171        5.22033
H          1.82500        6.55446        3.84339
H          7.41738       -1.36596       -0.34733
H          7.72876        0.35006       -0.61695
H          7.81897       -0.31392        1.01178
