111
-148.55447709
P         -2.32044       -2.50959       -0.32418
P         -0.14294       -0.22188       -0.52469
C         -1.73087       -1.97397       -1.94870
C         -0.81792       -0.94614       -2.03171
C         -2.03535       -4.31866       -0.07654
C         -0.98319       -4.54247        0.98814
C         -2.19562       -2.57901       -3.09862
H         -2.89560       -3.39538       -3.02406
C         -1.75598       -2.13651       -4.33442
H         -2.11956       -2.60628       -5.23372
C         -0.85492       -1.09203       -4.41629
H         -0.51503       -0.74537       -5.37830
C         -0.38285       -0.49564       -3.26059
H          0.32683        0.31581       -3.30615
Pd        -1.39738       -1.07766        1.22955
Cl        -2.92765       -1.69423        2.74723
Cl        -0.40377        0.41554        2.59045
C         -3.43407       -4.85471        0.28557
C         -4.16612       -2.44951       -0.17301
H         -0.81170       -5.60727        1.16339
H         -0.03040       -4.08616        0.70745
H         -1.29320       -4.09615        1.93543
H         -3.51283       -4.92129        1.37936
H         -3.55692       -5.88489       -0.08146
H         -4.37251       -2.06100        0.83287
C         -4.56433       -3.93395       -0.25571
C         -4.79941       -1.55911       -1.22077
H         -1.70649       -4.71522       -1.04613
H         -4.77609       -4.18713       -1.30357
H         -5.50667       -4.10799        0.28583
H         -4.59231       -1.92806       -2.22603
H         -5.88471       -1.51582       -1.10415
H         -4.41105       -0.54020       -1.15993
C         -0.88564        4.25096       -0.16861
C          0.44267        3.75668       -0.11293
C          0.63791        2.39173       -0.23295
C         -0.41236        1.54377       -0.46576
C         -1.68531        2.02527       -0.62203
C         -1.95061        3.38163       -0.52058
O         -1.15253        5.60436        0.16919
C          1.65969        4.66212        0.13195
H          1.61957        1.96705       -0.12081
H         -2.47655        1.31888       -0.80720
C         -3.38767        3.87676       -0.74533
C          4.30317       -1.09623       -0.01041
C          3.64651       -1.50809       -1.19855
C          2.29607       -1.23135       -1.33262
C          1.58844       -0.64589       -0.31503
C          2.19656       -0.36028        0.87890
C          3.54389       -0.60042        1.07923
O          5.72021       -1.14373        0.07300
C          4.38341       -2.21132       -2.34912
H          1.77891       -1.46088       -2.24669
H          1.59244        0.06601        1.65946
C          4.16120       -0.28255        2.44984
C          1.44768        6.05629       -0.48489
C          1.90483        4.78126        1.64396
C          2.92608        4.06587       -0.52527
C         -3.40339        5.30867       -1.31044
C         -4.11675        2.98146       -1.77314
C         -4.15503        3.82140        0.58452
C         -1.43091        5.81056        1.54860
H          2.33450        6.67771       -0.36291
H          1.23345        5.97589       -1.55007
H          0.61553        6.57548       -0.01614
H          1.05253        5.23066        2.14755
H          2.06851        3.79868        2.08571
H          2.78062        5.39572        1.85093
H          3.75954        4.76526       -0.46339
H          3.24376        3.14792       -0.03297
H          2.75017        3.84746       -1.57823
H         -2.97622        6.01869       -0.60701
H         -2.82532        5.36347       -2.23227
H         -4.42077        5.63286       -1.52802
H         -3.53391        2.88908       -2.68923
H         -4.29897        1.98271       -1.38017
H         -5.08700        3.40331       -2.03444
H         -4.17422        2.80436        0.97566
H         -3.68862        4.45433        1.33561
H         -5.18479        4.15363        0.45582
H         -2.43178        6.22638        1.66283
H         -1.36383        4.86842        2.09432
H         -0.71764        6.52295        1.96284
C          6.36496        0.04511       -0.36711
C          3.42551       -3.15212       -3.11542
C          4.92221       -1.15702       -3.32781
C          5.53728       -3.08163       -1.81870
C          3.12024       -0.48179        3.57554
C          5.34137       -1.22106        2.75927
C          4.62717        1.18133        2.46815
H          2.92561       -3.83723       -2.43114
H          2.66452       -2.59659       -3.66151
H          3.97153       -3.74823       -3.84626
H          4.10870       -0.55441       -3.73120
H          5.62049       -0.48360       -2.83663
H          5.43997       -1.62804       -4.16299
H          5.16977       -3.80342       -1.09004
H          6.01808       -3.63083       -2.62783
H          6.29963       -2.47707       -1.33366
H          3.58665       -0.38522        4.55561
H          2.32490        0.26034        3.52681
H          2.66884       -1.47169        3.51560
H          5.73648       -1.03774        3.75814
H          5.02728       -2.26284        2.70447
H          6.15577       -1.08112        2.05297
H          3.78869        1.85361        2.28886
H          5.37149        1.36853        1.69782
H          5.06623        1.43959        3.43141
H          5.62844        0.77478       -0.70621
H          6.94742        0.47010        0.45012
H          7.04663       -0.19020       -1.18431
