115
-277.94067531
P         -1.71151       -0.67505        0.02639
P          2.01378        0.40959        0.02834
C         -2.13468       -2.41100        0.22459
C         -1.15005       -3.33445        0.50248
H         -0.17227       -3.00872        0.81672
C         -1.39577       -4.67490        0.28779
H         -0.60886       -5.40603        0.39120
C         -2.61529       -5.08696       -0.22451
C         -3.63675       -4.16072       -0.37853
H         -4.57761       -4.48328       -0.79457
C         -3.39845       -2.81997       -0.14722
H         -4.15910       -2.08504       -0.36031
C         -3.12274        0.28879        0.61831
C         -3.88616        0.96369       -0.30674
H         -3.62449        0.92057       -1.35145
C         -4.98186        1.69355        0.10404
H         -5.58204        2.23807       -0.60740
C         -5.32482        1.74606        1.44154
C         -4.55461        1.06674        2.36391
H         -4.82517        1.12585        3.40650
C         -3.46009        0.33749        1.95035
H         -2.86335       -0.19722        2.67186
C         -1.42897       -0.26733       -1.73151
C         -0.93617        1.01628       -1.86505
H         -0.70406        1.58103       -0.97862
C         -0.59513        1.53712       -3.11236
C         -0.97402        0.81624       -4.23850
H         -0.75995        1.21456       -5.21613
C         -1.46585       -0.46777       -4.11426
H         -1.63003       -1.05799       -4.99995
C         -1.58795       -1.07740       -2.86571
C          1.77741       -0.17492       -1.68433
C          1.28298       -1.46707       -1.71726
H          1.01663       -1.95154       -0.79209
C          0.97739       -2.09594       -2.92380
C          1.39073       -1.47480       -4.09673
H          1.20382       -1.95660       -5.04185
C          1.87786       -0.18330       -4.07227
H          2.06601        0.32701       -5.00172
C          1.96520        0.53450       -2.87950
C         -1.53104       -2.58906       -2.82941
H         -2.18208       -2.99812       -3.61067
H         -1.98157       -2.94697       -1.90748
C         -0.07715       -3.16999       -2.97430
H          0.12361       -3.91926       -2.20109
H          0.01909       -3.72050       -3.91689
C          0.45647        2.60813       -3.21549
H          0.22133        3.41002       -2.50738
H          0.38702        3.08490       -4.19965
C          1.90701        2.04495       -2.97811
H          2.57643        2.37893       -3.77877
H          2.33292        2.48142       -2.07843
C          2.10134        2.19955        0.17444
C          0.96341        2.94204        0.40258
C          3.29321        2.81824       -0.13944
C          0.98656        4.30265        0.17942
C          3.31429        4.18085       -0.36231
C          2.14609        4.91832       -0.26618
C          3.54000       -0.28354        0.70250
C          4.04670       -1.43594        0.14765
C          4.20668        0.33391        1.73583
C          5.22285       -1.97222        0.62726
H          3.53142       -1.90797       -0.67212
C          5.38346       -0.20309        2.21730
H          3.80246        1.23415        2.17063
C          5.89668       -1.36077        1.66707
H          5.64131       -2.86538        0.19170
H          5.92566        0.27095        3.02033
Pd         0.20297       -0.29107        1.34759
Cl        -1.17891       -1.25239        2.85322
Cl         1.63824        0.30000        2.97856
H          4.20443        4.66979       -0.72660
H          4.17781        2.22477       -0.31116
H          0.08117        4.88418        0.24652
H          0.04969        2.45880        0.70607
C         -4.10672       -6.97494       -1.03155
C         -2.65761       -6.41605       -0.93717
C         -2.01293       -6.16630       -2.33851
F         -4.62381       -6.97652        0.20599
F         -4.84295       -6.18782       -1.82802
F         -4.06438       -8.22552       -1.51687
F         -1.90892       -7.31177       -0.28923
F         -0.73385       -5.82318       -2.13534
F         -2.08910       -7.27913       -3.08045
F         -2.64477       -5.14657       -2.93595
C         -6.04702        4.07876        1.91317
C         -6.48515        2.58648        1.91055
C         -7.73238        2.33507        1.01229
F         -5.02823        4.19543        2.77841
F         -5.63680        4.41987        0.68260
F         -7.07633        4.84704        2.30060
F         -6.81441        2.25565        3.16224
F         -7.49979        2.80443       -0.22141
F         -7.93428        1.00981        0.96259
F         -8.79732        2.94525        1.55493
C          7.15604       -3.43843        2.32628
C          7.22277       -1.89254        2.14799
C          8.32252       -1.45903        1.13669
F          6.08872       -3.71212        3.09137
F          7.01691       -4.02366        1.12858
F          8.27779       -3.86166        2.92908
F          7.52695       -1.36038        3.33493
F          8.35375       -0.11784        1.12965
F          9.50854       -1.94966        1.52646
F          8.00074       -1.90968       -0.08481
C          1.54841        5.93318       -2.41341
C          2.07796        6.24523       -0.97843
C          1.18736        7.26289       -0.20935
F          2.37713        5.03231       -2.96072
F          0.32611        5.39538       -2.32256
F          1.52626        7.05707       -3.14243
F          3.29951        6.77195       -1.09474
F          1.24787        8.45254       -0.82783
F         -0.07699        6.82016       -0.16842
F          1.67290        7.36465        1.03712
