58
-89.86595327
P          1.85487       -0.18738        0.51337
C          1.79894        1.60350        0.71625
C          1.61139        2.35726       -0.42059
C          1.52370        3.73418       -0.33529
C          1.62720        4.35136        0.89493
C          1.82393        3.59533        2.03345
C          1.91273        2.21819        1.94333
H          2.07411        1.62849        2.82968
H          1.52952        1.85625       -1.37262
C          3.31448       -0.67810       -0.40695
C          3.39806       -1.96316       -0.89124
C          4.51389       -2.35440       -1.60993
C          5.53680       -1.45453       -1.83633
C          5.44747       -0.16590       -1.34763
C          4.33043        0.22265       -0.63032
H          4.24335        1.22649       -0.24716
H          2.58627       -2.65125       -0.71355
C          1.86202       -1.09948        2.11923
C          0.48641       -1.47993        2.64916
C         -0.51683       -0.33334        2.64527
P         -1.40156       -0.29383        1.03549
C         -2.22338        1.28377        0.76213
C         -1.56402        2.45439        1.05903
C         -2.17614        3.67144        0.82187
C         -3.44558        3.70858        0.28047
C         -4.09901        2.53274       -0.03125
C         -3.48239        1.31771        0.20699
H         -3.97203        0.39343       -0.05374
H         -0.55907        2.41573        1.44327
C         -2.58613       -1.64716        1.05614
C         -2.33947       -2.80355        0.35171
C         -3.25006       -3.84367        0.39531
C         -4.39888       -3.72155        1.15155
C         -4.63739       -2.56453        1.86645
C         -3.72473       -1.52572        1.82058
H         -3.89415       -0.61861        2.37931
H         -1.43939       -2.88742       -0.23577
Pd        -0.03154       -0.40074       -0.83059
Cl         1.28267       -0.22824       -2.64197
Cl        -1.90675       -0.77997       -2.00865
H         -1.28561       -0.45575        3.41224
H         -0.03155        0.62512        2.82803
H          0.07449       -2.30481        2.04929
H          0.59040       -1.89113        3.66588
H          2.48323       -1.98722        1.97621
H          2.39479       -0.47103        2.83435
H          1.37051        4.32115       -1.22584
H          1.90862        4.07824        2.99318
H          4.58128       -3.35836       -1.99557
H          6.24415        0.53720       -1.52715
H         -1.65731        4.58792        1.05008
H         -5.08488        2.56040       -0.46546
H         -3.06293       -4.74669       -0.16220
H         -5.53197       -2.47009        2.45979
H          1.55627        5.42446        0.96645
H          6.40525       -1.75774       -2.39809
H         -3.92327        4.65631        0.09255
H         -5.10972       -4.53107        1.18495
