111
-148.55667488
P         -2.24330       -2.12150       -1.34273
P          0.15698       -0.20065       -0.59133
C         -1.15228       -1.50112       -2.64381
C         -0.11803       -0.65148       -2.31710
C         -2.38689       -3.96382       -1.40016
C         -1.52637       -4.61222       -0.33687
C         -1.35588       -1.87305       -3.95707
H         -2.15844       -2.55063       -4.19985
C         -0.52785       -1.37658       -4.94871
H         -0.68651       -1.66341       -5.97544
C          0.49971       -0.51253       -4.62292
H          1.14319       -0.12303       -5.39459
C          0.70564       -0.15044       -3.30363
H          1.50463        0.52225       -3.03852
Pd        -1.42850       -1.34571        0.66727
Cl        -3.23389       -2.22223        1.66743
Cl        -0.50281       -0.53535        2.54137
C         -3.89909       -4.19260       -1.22644
C         -4.02240       -1.65159       -1.56878
H         -1.82851       -4.28321        0.65920
H         -1.61102       -5.70110       -0.36381
H         -0.47311       -4.34997       -0.46394
H         -4.11654       -4.30809       -0.15553
H         -4.19971       -5.14283       -1.69365
H         -4.33348       -1.21366       -0.61112
C         -4.72463       -3.00499       -1.79605
C         -4.21155       -0.66388       -2.70246
H         -2.06428       -4.26930       -2.40405
H         -4.87249       -3.14966       -2.87491
H         -5.73563       -2.98783       -1.36188
H         -3.93565       -1.11179       -3.65807
H         -5.25214       -0.34069       -2.78128
H         -3.58870        0.22280       -2.57205
C         -1.22435        4.05257        0.27490
C         -2.15392        3.07057       -0.15537
C         -1.67706        1.80456       -0.45549
C         -0.36222        1.47775       -0.24471
C          0.50621        2.38329        0.30717
C          0.10104        3.67239        0.60618
O         -1.60205        5.42031        0.33132
C         -3.65841        3.35241       -0.29174
H         -2.33336        1.04550       -0.84401
H          1.51294        2.06717        0.51093
C          1.09934        4.64227        1.25678
C          4.38060       -0.98115        0.94443
C          4.17336       -0.00488       -0.06592
C          2.87970        0.21413       -0.51021
C          1.83248       -0.54352       -0.05103
C          2.05304       -1.57893        0.81976
C          3.31930       -1.85024        1.30999
O          5.61350       -1.03139        1.64433
C          5.30362        0.81812       -0.70780
H          2.67753        1.00347       -1.21358
H          1.21177       -2.16799        1.14255
C          3.48442       -3.07139        2.22980
C         -4.47504        2.10102        0.10333
C         -4.10652        4.48650        0.64847
C         -3.97575        3.71930       -1.74889
C          1.86800        5.39196        0.15852
C          0.37676        5.64518        2.17448
C          2.11216        3.87409        2.13638
C         -1.42612        6.11261       -0.89808
H         -5.54092        2.32579        0.13136
H         -4.33874        1.28895       -0.60687
H         -4.18122        1.74285        1.08969
H         -3.83750        4.25819        1.67924
H         -3.63822        5.43096        0.38371
H         -5.18574        4.63026        0.60301
H         -3.42919        4.60818       -2.05715
H         -3.69587        2.90865       -2.42112
H         -5.03979        3.91439       -1.87985
H          2.60097        6.07308        0.59015
H          2.39653        4.69243       -0.48865
H          1.19333        5.97515       -0.46417
H         -0.29749        6.28403        1.60907
H         -0.21141        5.12126        2.92716
H          1.08899        6.29041        2.68814
H          2.73969        4.56553        2.69819
H          1.59617        3.23351        2.85111
H          2.77733        3.25317        1.53879
H         -0.80499        6.99309       -0.73340
H         -0.94932        5.46420       -1.63426
H         -2.39325        6.44068       -1.27830
C          5.63632       -0.17573        2.77487
C          6.69706        0.24665       -0.39282
C          5.14415        0.79434       -2.24409
C          5.22220        2.27300       -0.21647
C          2.86635       -2.76059        3.60334
C          2.75380       -4.28415        1.61123
C          4.95814       -3.47590        2.40646
H          6.92536        0.32535        0.66738
H          6.75210       -0.80576       -0.66897
H          7.47404        0.78262       -0.93745
H          5.97448        1.30725       -2.72883
H          5.12135       -0.23103       -2.61210
H          4.22777        1.28739       -2.56392
H          5.32960        2.33015        0.86507
H          6.00872        2.87974       -0.66443
H          4.26443        2.71987       -0.48050
H          2.94186       -3.62045        4.26832
H          3.36953       -1.92211        4.08066
H          1.81226       -2.50222        3.50650
H          1.67738       -4.12810        1.56379
H          3.11245       -4.47436        0.60005
H          2.92417       -5.18315        2.20301
H          5.51845       -2.70499        2.93012
H          5.43197       -3.63369        1.43825
H          5.04657       -4.39639        2.98302
H          4.85110       -0.45919        3.47371
H          6.60497       -0.25738        3.26838
H          5.47460        0.85597        2.46677
