171
-217.84823185
P         -1.61158        0.43516       -0.30910
P          1.62607       -0.29858       -0.24871
C         -0.84939        1.47706       -1.56238
C          0.96571       -1.18774       -1.66129
C         -0.00723        0.94382       -2.53273
C          0.64460        1.82204       -3.41987
C          0.40744        3.18304       -3.32397
C         -0.44789        3.69010       -2.36926
C         -1.06841        2.83111       -1.48409
C          1.19772       -2.53844       -1.74678
C          0.67929       -3.26546       -2.80056
C         -0.08291       -2.63068       -3.75850
C         -0.33108       -1.26970       -3.68826
C          0.21425       -0.52507       -2.62460
Cl         1.50971        0.49874        2.93924
Cl        -1.63035       -0.18070        2.90662
C         -1.14636       -0.61616       -4.74869
C          1.58797        1.32052       -4.45679
H         -0.62707        4.75110       -2.30839
H         -1.72778        3.22063       -0.72573
H          1.78866       -3.02505       -0.98737
H          0.87101       -4.32335       -2.87452
H          0.90747        3.84894       -4.00703
H         -0.49548       -3.19490       -4.57785
C         -3.52421       -3.40061       -1.75108
C         -2.62014       -3.45626       -0.69713
C         -2.01994       -2.27050       -0.29643
C         -2.31276       -1.09014       -0.93296
C         -3.20790       -1.05045       -1.97363
C         -3.83918       -2.21293       -2.40076
H         -4.01715       -4.30060       -2.06685
H         -1.33488       -2.26272        0.53392
H         -3.42217       -0.10064       -2.43350
C         -4.81434        2.64603        2.02305
C         -3.48875        3.03049        2.18698
C         -2.51924        2.36007        1.45105
C         -2.87207        1.34623        0.59530
C         -4.18631        0.97816        0.45021
C         -5.18874        1.62315        1.16008
H         -5.56770        3.15104        2.59777
H         -1.47644        2.60252        1.56258
H         -4.43384        0.16595       -0.21037
C          4.28180       -3.03906        2.20903
C          2.90374       -3.19023        2.29725
C          2.11036       -2.35918        1.51683
C          2.67793       -1.39024        0.72598
C          4.04115       -1.23630        0.67618
C          4.87466       -2.06729        1.41324
H          4.91423       -3.69689        2.77572
H          1.03889       -2.45382        1.53221
H          4.45113       -0.45672        0.06029
C          3.94077        3.41721       -1.37729
C          2.90763        3.52435       -0.45495
C          2.21248        2.36858       -0.12354
C          2.52581        1.17433       -0.72254
C          3.53242        1.08931       -1.65309
C          4.27062        2.21690       -1.99436
H          4.51979        4.29252       -1.60669
H          1.42634        2.38745        0.61095
H          3.73886        0.13352       -2.10396
Pd        -0.02337        0.06778        1.35502
C         -2.63603       -4.56976        1.54718
C         -2.29577       -4.75398        0.05582
C         -0.79845       -5.07148       -0.10347
C         -3.10660       -5.94763       -0.48386
H         -3.69453       -4.34382        1.67411
H         -2.41300       -5.47370        2.11365
H         -2.06868       -3.75126        1.98759
H         -0.55491       -5.25018       -1.14995
H         -0.18000       -4.24613        0.24479
H         -0.52417       -5.96149        0.46252
H         -2.86705       -6.85734        0.06667
H         -4.17747       -5.77242       -0.38213
H         -2.88362       -6.13049       -1.53488
C         -6.26290       -2.61035       -2.87639
C         -4.91302       -2.20667       -3.49810
C         -4.53068       -3.20965       -4.60275
C         -5.07032       -0.81213       -4.13554
H         -6.21676       -3.61115       -2.44837
H         -6.54204       -1.91974       -2.08071
H         -7.05554       -2.60239       -3.62434
H         -4.48287       -4.22725       -4.21736
H         -5.26180       -3.19594       -5.41089
H         -3.55661       -2.96765       -5.02580
H         -5.38570       -0.07547       -3.39718
H         -4.13577       -0.47435       -4.58108
H         -5.82384       -0.82994       -4.92283
C         -3.89368        5.41874        2.85038
C         -3.12958        4.12794        3.19840
C         -1.62053        4.43910        3.18555
C         -3.51777        3.65436        4.61065
H         -4.97140        5.27047        2.90467
H         -3.63423        6.22264        3.53907
H         -3.65104        5.74837        1.84026
H         -1.38104        5.22858        3.89770
H         -1.03503        3.56139        3.45885
H         -1.30333        4.77597        2.19940
H         -4.58811        3.46515        4.68361
H         -2.99728        2.73000        4.86078
H         -3.25801        4.40261        5.35919
C         -7.04726        1.32815       -0.49683
C         -6.64336        1.16658        0.98060
C         -7.61199        1.99360        1.84703
C         -6.76156       -0.31413        1.38888
H         -8.08228        1.02523       -0.65418
H         -6.94689        2.36648       -0.81221
H         -6.42022        0.71940       -1.14696
H         -8.63963        1.65959        1.70419
H         -7.37636        1.89050        2.90607
H         -7.56887        3.05028        1.58367
H         -6.45324       -0.45291        2.42488
H         -7.78859       -0.66542        1.29120
H         -6.13208       -0.94877        0.76595
C          2.47771       -5.64037        2.55447
C          2.29444       -4.26263        3.21191
C          0.79108       -4.01175        3.44618
C          2.99363       -4.24341        4.58582
H          3.53392       -5.86373        2.40590
H          2.04900       -6.42913        3.17240
H          1.99012       -5.67039        1.58022
H          0.61937       -3.00966        3.83919
H          0.22506       -4.12085        2.52350
H          0.38459       -4.72609        4.16187
H          2.52337       -4.94870        5.27087
H          4.04461       -4.51714        4.50677
H          2.93512       -3.25081        5.03201
C          7.01762       -3.24745        0.86161
C          6.40350       -1.93255        1.37552
C          6.92177       -1.63448        2.79438
C          6.84954       -0.78849        0.44357
H          8.10360       -3.17483        0.80493
H          6.77329       -4.08202        1.51775
H          6.64249       -3.48357       -0.13407
H          8.00452       -1.51015        2.79637
H          6.47553       -0.71863        3.18148
H          6.67776       -2.44221        3.48333
H          7.93595       -0.70261        0.42788
H          6.51827       -0.96518       -0.57947
H          6.44800        0.16798        0.77792
C          3.76507        5.27681        1.11127
C          2.59369        4.87709        0.19757
C          1.30667        4.80930        1.04250
C          2.39664        5.94573       -0.89456
H          4.69085        5.37091        0.54447
H          3.57145        6.23147        1.60004
H          3.92196        4.52577        1.88534
H          0.46003        4.49066        0.43498
H          1.41707        4.11406        1.87437
H          1.06693        5.78633        1.46176
H          2.12511        6.90563       -0.45561
H          3.30480        6.09421       -1.47708
H          1.60306        5.65243       -1.58079
C          6.75990        2.38365       -2.15641
C          5.46556        2.15348       -2.95702
C          5.33089        3.24343       -4.03819
C          5.55704        0.78364       -3.65782
H          7.63460        2.33670       -2.80485
H          6.75314        3.35929       -1.67136
H          6.87321        1.62674       -1.38103
H          6.15608        3.18932       -4.74814
H          4.40237        3.12774       -4.59523
H          5.33732        4.24160       -3.60269
H          4.64507        0.56470       -4.21238
H          6.38693        0.76536       -4.36411
H          5.72342       -0.01724       -2.93796
H         -1.60720        0.30337       -4.38514
H          1.14151        1.37609       -5.45054
H         -1.94533       -1.27527       -5.08864
H         -0.53167       -0.36727       -5.61459
H          1.87548        0.28491       -4.27097
H          2.50011        1.91687       -4.46724
