64
-97.22119832
Cl        -1.38092       -0.23677       -2.81871
Cl         1.78251       -0.67683       -3.01577
P          1.93194       -0.66988        0.29069
C          2.12236       -2.41552        0.87634
C          3.72431       -0.19859        0.13779
P         -1.28131       -0.31521        0.36419
C          1.17059        0.41072        1.55808
C         -0.26542        0.60184        1.57975
C         -0.58061        1.58786        2.60183
C          0.67790        2.04421        3.16657
C          1.76020        1.29588        2.54989
H         -1.57933        1.91930        2.89212
H          0.78762        2.78200        3.96475
Pd         0.27425       -0.67024       -1.36323
H          2.82521        1.39635        2.76705
C         -5.17750        1.73870       -0.81622
C         -4.93823        0.42485       -1.16660
C         -3.75127       -0.18168       -0.79563
C         -2.81031        0.52505       -0.08202
C         -3.05096        1.83252        0.27320
C         -4.23481        2.44398       -0.09508
H         -6.10037        2.21405       -1.10626
H         -5.67169       -0.12715       -1.73104
H         -3.54856       -1.20570       -1.06730
H         -2.31083        2.37395        0.83517
H         -4.41974        3.46959        0.17950
C         -2.34900       -4.42792        1.96869
C         -1.99312       -4.28161        0.64201
C         -1.67487       -3.02949        0.14824
C         -1.71156       -1.93823        0.98523
C         -2.07227       -2.07527        2.30570
C         -2.39155       -3.32685        2.80177
H         -2.59677       -5.40348        2.35419
H         -1.96425       -5.14030       -0.00848
H         -1.40538       -2.89719       -0.88737
H         -2.09436       -1.20432        2.94183
H         -2.67122       -3.44121        3.83618
C          4.17958       -0.07814       -1.30006
H          3.84705        0.75953        0.65979
C          4.43810       -1.33859        0.89118
H          4.56282       -1.06829        1.95001
C          3.63998       -2.66574        0.78856
H          5.45582       -1.46556        0.49401
C          1.57331       -2.56227        2.27913
H          1.56926       -3.05295        0.17296
H          3.94522       -3.36502        1.58037
H          3.88408       -3.16605       -0.15986
H          0.51752       -2.29059        2.32435
H          1.67398       -3.58668        2.64538
H          2.10769       -1.90725        2.97014
H          5.24676        0.14494       -1.36422
H          4.00484       -1.01308       -1.83486
H          3.64353        0.70812       -1.83306
Fe         0.65881        2.33362        1.14157
C          2.06268        3.31929        0.01323
C          1.11827        4.25700        0.59583
C         -0.21180        3.88603        0.14045
C         -0.08961        2.75086       -0.75636
C          1.31164        2.38513       -0.80327
H          3.14707        3.33111        0.14503
H          1.36429        5.09401        1.25330
H         -1.13526        4.42256        0.37062
H         -0.89317        2.25257       -1.30217
H          1.72780        1.59999       -1.43632
