111
-148.55633161
P         -2.48512       -2.19667       -0.64811
P          0.02181       -0.26507       -0.59534
C         -1.69491       -1.71202       -2.20015
C         -0.61522       -0.85643       -2.17756
C         -2.64244       -4.03438       -0.51735
C         -1.59094       -4.60711        0.40888
C         -2.17548       -2.19156       -3.40168
H         -3.01157       -2.87210       -3.40677
C         -1.58016       -1.79722       -4.58719
H         -1.95529       -2.16823       -5.52701
C         -0.50789       -0.92651       -4.56570
H         -0.04581       -0.61573       -5.48829
C         -0.02404       -0.45617       -3.35796
H          0.81105        0.22409       -3.33125
Pd        -1.26167       -1.26500        1.06922
Cl        -2.84411       -2.01949        2.46864
Cl         0.03238       -0.30973        2.62896
C         -4.09135       -4.21946       -0.03177
C         -4.27116       -1.71078       -0.54065
H         -1.69063       -4.18940        1.41250
H         -1.68161       -5.69257        0.49331
H         -0.58257       -4.37666        0.05616
H         -4.09320       -4.24743        1.06671
H         -4.48203       -5.19697       -0.35333
H         -4.37863       -1.20095        0.42585
C         -5.00907       -3.06385       -0.52032
C         -4.68513       -0.80159       -1.68022
H         -2.52398       -4.42926       -1.53481
H         -5.36609       -3.28712       -1.53494
H         -5.91516       -2.99493        0.10034
H         -5.71963       -0.46834       -1.56974
H         -4.04777        0.08223       -1.74185
H         -4.60938       -1.31909       -2.63750
C         -1.14563        4.07179        0.16442
C          0.22363        3.70480        0.20215
C          0.55519        2.38717       -0.06134
C         -0.41312        1.44611       -0.29662
C         -1.74262        1.77151       -0.21573
C         -2.14331        3.06750        0.06664
O         -1.51338        5.44327        0.17618
C          1.34503        4.71348        0.49452
H          1.58421        2.07768       -0.08073
H         -2.46713        0.98916       -0.35988
C         -3.63815        3.36115        0.26819
C          4.47918       -0.97635        0.06517
C          4.05690       -0.11824       -0.98207
C          2.69781        0.08418       -1.15688
C          1.77578       -0.58693       -0.39471
C          2.18139       -1.50867        0.53517
C          3.52407       -1.75239        0.76884
O          5.84840       -1.02527        0.43915
C          5.04561        0.61402       -1.90356
H          2.34374        0.79394       -1.88335
H          1.42843       -2.02079        1.10791
C          3.91713       -2.80418        1.81742
C          2.52120        4.02177        1.22093
C          1.85503        5.29907       -0.83077
C          0.85253        5.84358        1.41667
C         -4.29347        3.62222       -1.09588
C         -4.33576        2.15678        0.94045
C         -3.85126        4.57089        1.19670
C         -1.63466        6.01256       -1.12109
H          3.26452        4.75289        1.53789
H          2.17092        3.49357        2.10732
H          3.03075        3.30693        0.57755
H          2.66132        6.01163       -0.65880
H          2.23390        4.51039       -1.48055
H          1.05844        5.81373       -1.36387
H          0.07711        6.43629        0.93760
H          0.43919        5.43409        2.33776
H          1.66700        6.51797        1.67991
H         -3.84210        4.48023       -1.58968
H         -4.17466        2.76096       -1.75273
H         -5.35967        3.81847       -0.98574
H         -3.81408        1.86668        1.85218
H         -5.36389        2.40190        1.20549
H         -4.37369        1.29273        0.28115
H         -3.34457        4.41690        2.14883
H         -3.46031        5.48405        0.75513
H         -4.91050        4.72957        1.39740
H         -0.94724        6.85297       -1.21666
H         -1.40569        5.26868       -1.88526
H         -2.65022        6.38044       -1.26667
C          6.21263       -0.05991        1.41804
C          5.36980        1.99399       -1.31152
C          6.33901       -0.19989       -2.09116
C          4.43311        0.81189       -3.30896
C          5.25999       -3.46812        1.46358
C          4.00336       -2.13315        3.19676
C          2.86031       -3.93083        1.88329
H          5.79652        1.90593       -0.31511
H          6.08266        2.52977       -1.93777
H          4.46841        2.60093       -1.23447
H          6.11342       -1.19704       -2.46766
H          7.00926        0.28665       -2.79935
H          6.87752       -0.31187       -1.15358
H          5.17378        1.21256       -4.00069
H          4.07592       -0.13524       -3.71249
H          3.60037        1.51334       -3.29193
H          6.07441       -2.74815        1.47713
H          5.50621       -4.25713        2.17374
H          5.21972       -3.90816        0.46775
H          4.75477       -1.34721        3.20619
H          3.04840       -1.68144        3.46463
H          4.26321       -2.85735        3.96831
H          3.19938       -4.74174        2.52750
H          2.67349       -4.34579        0.89316
H          1.91520       -3.57483        2.29068
H          6.61789       -0.56409        2.29522
H          6.98350        0.59729        1.01602
H          5.34451        0.53328        1.70852
