72
-98.09649132
Fe        -0.00203        2.81847        0.06449
P          1.84020       -0.04445       -0.00129
P         -1.82608       -0.04261        0.03805
C          1.38607        1.55750        0.76975
C          0.34979        1.75941        1.76842
C          0.29655        3.17201        2.09806
C          1.28793        3.84986        1.28331
C          1.98244        2.85325        0.48500
C         -1.40807        1.60338       -0.66232
C         -2.00687        2.87684       -0.29143
C         -1.35861        3.92315       -1.06321
C         -0.36956        3.29744       -1.92078
C         -0.41345        1.86533       -1.68724
C          3.16381       -0.86765        1.02312
C          4.45032       -0.69890        0.18604
C          2.84695        0.27666       -1.53267
C          4.27316        0.33765       -0.95290
C         -3.15735       -0.78120       -1.02895
C         -4.36531        0.07255       -0.60645
C         -2.91175        0.21683        1.52786
C         -4.31232        0.44189        0.90642
H         -0.29599        0.98354        2.17779
H         -0.38213        3.64112        2.81355
H          1.50448        4.92056        1.29876
H          2.79244        3.04451       -0.22183
H         -2.79890        3.01985        0.44631
H          0.20275        1.11574       -2.17899
Cl         1.57441       -3.07194       -0.43360
Cl        -1.55015       -3.10432        0.27692
Pd         0.00699       -1.50331       -0.02688
H          2.89004       -1.92666        1.10118
C          3.28244       -0.27920        2.42712
H          2.53849        1.24418       -1.94661
C          2.71350       -0.82340       -2.58653
H          4.74669       -1.66666       -0.24390
H          5.28209       -0.40680        0.84248
H          4.47850        1.34683       -0.56621
H          5.01127        0.16899       -1.75145
H         -1.58433        4.99059       -1.01479
H          0.27877        3.81042       -2.63458
H          4.23893       -0.59109        2.86930
H          3.54781       -0.73953       -3.29675
H         -3.30312       -1.81695       -0.70075
C         -2.84540       -0.74434       -2.52769
H         -2.55546        1.11663        2.04305
C         -2.89665       -0.97670        2.48152
H         -5.30692       -0.44040       -0.85734
H         -4.36279        0.99038       -1.21283
H         -4.63994        1.48101        1.05807
H         -5.04271       -0.16786        1.45653
H         -3.78622       -0.65143       -3.08799
H         -3.14392       -1.88078        1.90995
C          2.14348       -0.68996        3.34421
H          1.18294       -0.38669        2.93307
H          2.10788       -1.77376        3.47073
H          2.23194       -0.24367        4.33729
C          1.40074       -0.80972       -3.34883
H          1.27236        0.12167       -3.90356
H          1.33732       -1.62901       -4.06869
H          0.55390       -0.90839       -2.67206
C         -2.08837       -1.97353       -3.00955
H         -1.17924       -2.13596       -2.43199
H         -2.69221       -2.87595       -2.89644
H         -1.80512       -1.89741       -4.06172
C         -1.58669       -1.17100        3.22545
H         -1.62919       -2.02029        3.91123
H         -0.76563       -1.35988        2.53520
H         -1.32930       -0.28895        3.81461
H          3.34421        0.81396        2.34847
H          2.85655       -1.79333       -2.09343
H         -2.28672        0.17283       -2.75343
H         -3.71489       -0.86230        3.20632
