64
-97.22184722
Cl        -1.44566       -0.44543       -2.82113
Cl         1.71862       -0.89868       -3.02575
P          1.93043       -0.65593        0.25437
C          2.13293       -2.40452        0.82835
C          3.71880       -0.19076        0.04860
P         -1.27331       -0.26225        0.38891
C          1.20795        0.42185        1.54503
C         -0.22520        0.62622        1.59851
C         -0.50288        1.62067        2.62420
C          0.76932        2.04992        3.17893
C          1.82785        1.30060        2.52432
H         -1.49115        1.96024        2.94036
H          0.90427        2.78276        3.97771
Pd         0.23701       -0.70254       -1.36123
H          2.89866        1.38730        2.71845
C         -5.13979        1.88246       -0.73691
C         -4.91698        0.57756       -1.12868
C         -3.73903       -0.05615       -0.77516
C         -2.78896        0.61422       -0.03873
C         -3.01470        1.91248        0.35887
C         -4.18950        2.55122        0.00843
H         -6.05573        2.37905       -1.01301
H         -5.65648        0.05350       -1.71159
H         -3.55082       -1.07376       -1.07881
H         -2.26956        2.42675        0.93931
H         -4.36165        3.56964        0.31612
C         -2.41558       -4.36964        1.95497
C         -2.13772       -4.19962        0.61255
C         -1.79721       -2.94786        0.13341
C         -1.73365       -1.88097        0.99968
C         -2.01719       -2.04118        2.33620
C         -2.35847       -3.29248        2.81802
H         -2.68073       -5.34492        2.32949
H         -2.18735       -5.03912       -0.06131
H         -1.59026       -2.79423       -0.91364
H         -1.96261       -1.18894        2.99519
H         -2.57782       -3.42536        3.86469
C          4.13364       -0.08181       -1.40254
H          3.85823        0.77052        0.56044
C          4.44957       -1.32781        0.78979
H          4.59858       -1.05329        1.84441
C          3.64868       -2.65494        0.71065
H          5.45782       -1.45664        0.36967
C          1.60888       -2.55812        2.23981
H          1.56701       -3.03887        0.13239
H          3.97010       -3.35020        1.49954
H          3.87317       -3.16040       -0.23986
H          0.55325       -2.28952        2.30388
H          1.71850       -3.58367        2.60025
H          2.15350       -1.90438        2.92401
H          5.19659        0.15008       -1.49812
H          3.95399       -1.02446       -1.92182
H          3.57566        0.69284       -1.92997
Fe         0.70683        2.34246        1.15076
C          1.19745        4.26758        0.60819
C         -0.15192        3.94230        0.17865
C         -0.07536        2.77489       -0.68177
C          1.31749        2.39210       -0.80027
C          2.10489        3.30660        0.00407
H          1.48255        5.10298        1.25162
H         -1.05773        4.49706        0.43334
H         -0.90622        2.29872       -1.20682
H          1.69748        1.59157       -1.43657
H          3.19267        3.29902        0.10474
