59
-75.81301495
Cl         1.58220        0.69330        2.33947
P          1.56062       -0.07739       -0.90113
P         -1.58378       -0.08941       -0.82784
C          0.58001        0.29334       -2.41623
H          0.32906        1.35708       -2.42898
H          1.19135        0.08411       -3.29998
C         -0.65872       -0.55005       -2.35675
H         -0.40387       -1.61205       -2.30293
H         -1.30941       -0.40588       -3.22557
C          2.48441       -1.66187       -1.20968
H          2.29823       -1.87646       -2.27074
C          3.00698        1.06314       -0.67841
H          3.11439        1.20195        0.40435
C         -2.92587       -1.31410       -0.45768
H         -3.28617       -1.07222        0.54994
C         -2.70858        1.32624       -1.26123
H         -2.22068        1.88877       -2.06658
C          3.96309       -1.27813       -1.02047
H          4.28746       -1.55556       -0.01052
H          4.59992       -1.86363       -1.70060
C          4.18786        0.24306       -1.22539
H          4.30096        0.45754       -2.29708
H          5.12955        0.56933       -0.75803
C         -3.98218       -0.91968       -1.50297
H         -3.75695       -1.45512       -2.43693
H         -4.97815       -1.27580       -1.19668
C         -3.99209        0.61734       -1.76511
H         -4.86029        1.06575       -1.26233
H         -4.14719        0.82059       -2.83514
C          1.99889       -2.83270       -0.35659
H          2.49077       -3.75351       -0.69988
H          0.93153       -2.98824       -0.56037
C          2.82417        2.41521       -1.35702
H          3.77932        2.95829       -1.33608
H          2.60897        2.25334       -2.42114
C         -2.48458       -2.77306       -0.51071
H         -3.37520       -3.41416       -0.56812
H         -1.94351       -2.95183       -1.44788
C         -2.98008        2.24263       -0.06861
H         -3.85208        2.87151       -0.29715
H         -3.28648        1.62422        0.78539
C          2.22146       -2.67115        1.14162
H          1.73154       -3.46247        1.71386
H          1.83422       -1.72024        1.50541
H          3.28030       -2.70229        1.40206
C          1.73492        3.25738       -0.71452
H          1.61630        4.22479       -1.20778
H          1.95173        3.44747        0.33839
H          0.77241        2.74853       -0.75481
C         -1.63765       -3.17605        0.68612
H         -1.29343       -4.21057        0.61887
H         -2.19831       -3.07546        1.61741
H         -0.75791       -2.54022        0.78069
C         -1.80821        3.13101        0.31607
H         -1.48291        3.74320       -0.52711
H         -2.06167        3.80855        1.13465
H         -0.95180        2.54391        0.64413
Cl        -1.57458        0.11114        2.41285
Pd         0.02331        0.11301        0.83597
