105
-153.06567815
Cl        -1.00971        2.31157       -2.71669
Pd         0.12664        1.32980       -1.03105
P          1.38034        0.70125        0.82889
N          0.60098       -0.55342        1.78535
C          0.02838       -1.79801        1.55018
C         -0.14387       -2.37027        0.26586
C         -0.86335       -3.57576        0.13327
C         -1.04985       -4.15681       -1.24934
C         -1.59907       -5.59232       -1.27700
C         -2.70940       -5.77930       -0.23882
C         -2.17984       -5.48928        1.17317
C         -1.37985       -4.21496        1.26223
C         -1.14871       -3.66694        2.51660
C         -0.46245       -2.48928        2.65787
H         -0.32643       -2.06157        3.63606
H         -1.53744       -4.17036        3.38561
H         -3.01080       -5.43827        1.88856
H         -3.53678       -5.09492       -0.46512
H         -1.95951       -5.85297       -2.28211
H         -1.72182       -3.49620       -1.80983
C          0.55799       -1.84387       -0.92794
C         -0.18800       -1.27221       -1.99918
C          0.47271       -1.02044       -3.20755
C          1.81105       -1.28495       -3.34692
C          2.54972       -1.84282       -2.30983
C          4.00112       -2.16651       -2.54386
C          4.48121       -3.35006       -1.69220
C          4.14523       -3.11517       -0.21634
C          2.63747       -2.89314        0.00100
C          1.92284       -2.13861       -1.09823
H          2.14203       -3.86405        0.12136
H          4.69678       -2.23761        0.13749
H          5.55862       -3.52120       -1.82801
H          4.60128       -1.27739       -2.31940
H          2.30567       -1.06212       -4.27703
H         -0.07809       -0.57375       -4.01652
N         -1.53009       -0.88485       -1.85406
P         -1.89102        0.18527       -0.49166
C         -2.72739       -0.65436        0.84832
C         -3.50692       -1.74951        0.56618
C         -4.20286       -2.37519        1.58475
C         -4.13037       -1.89524        2.88582
C         -3.34736       -0.77749        3.14512
C         -2.65464       -0.15102        2.12479
H         -2.05109        0.72147        2.31659
H         -3.27924       -0.40353        4.15236
C         -4.84047       -2.59623        3.99072
H         -4.80043       -3.24586        1.37555
H         -3.55756       -2.11328       -0.44771
C         -2.99926        1.52487       -0.93185
C         -3.96428        1.35097       -1.89407
C         -4.81656        2.39544       -2.20382
C         -4.71326        3.61247       -1.54288
C         -3.73294        3.76483       -0.57135
C         -2.88152        2.71969       -0.26127
H         -2.11878        2.83283        0.49402
H         -3.63677        4.70850       -0.06215
C         -5.60868        4.74733       -1.90020
H         -5.56711        2.27193       -2.96572
H         -4.05019        0.40151       -2.39716
H         -1.93346       -0.42991       -2.66313
H          0.84603       -0.35488        2.74651
C          1.20280        2.24719        1.72951
C          0.44900        2.32232        2.87731
C          0.30738        3.53252        3.53121
C          0.92258        4.67680        3.04166
C          1.66317        4.58628        1.87113
C          1.79951        3.37522        1.21804
H          2.33786        3.30866        0.28642
H          2.12274        5.47226        1.46748
C          0.74895        5.98603        3.72959
H         -0.28650        3.59619        4.42705
H         -0.03787        1.44067        3.25688
C          3.14543        0.34759        0.83347
C          3.68663       -0.16788        1.98861
C          5.04582       -0.41669        2.06777
C          5.87626       -0.15137        0.98778
C          5.31766        0.38637       -0.16282
C          3.96050        0.63295       -0.23551
H          3.53503        1.07124       -1.12078
H          5.95462        0.61707       -0.99964
C          7.34088       -0.40517        1.07306
H          5.46949       -0.81976        2.97171
H          3.04526       -0.37179        2.83067
Cl         2.00592        2.25965       -1.85550
H         -1.55110       -6.32151        1.51145
H         -0.78501       -6.29707       -1.06576
H         -3.13647       -6.79040       -0.29923
H         -0.09074       -4.11439       -1.78077
H          4.50646       -3.95045        0.39985
H          2.46992       -2.36647        0.94808
H          4.16247       -2.37014       -3.61010
H          3.98876       -4.26854       -2.03562
H         -4.20651       -3.36837        4.42889
H         -5.12056       -1.90061        4.78299
H         -5.75312       -3.07393        3.63164
H         -6.58116        4.38962       -2.24133
H         -5.77851        5.40022       -1.04291
H         -5.17137        5.34761       -2.69914
H         -0.11832        6.51797        3.33612
H          0.60330        5.85132        4.80230
H          1.62472        6.62184        3.59220
H          7.55890       -1.22893        1.75426
H          7.75193       -0.66631        0.09680
H          7.86691        0.47940        1.43458
