115
-277.94071960
P         -1.69741       -0.61642        0.04074
P          1.94613        0.48070       -0.00940
C         -2.11397       -2.35724        0.21544
C         -1.12132       -3.28341        0.45230
H         -0.13624       -2.96136        0.74691
C         -1.37218       -4.62101        0.22728
H         -0.58243       -5.35281        0.29963
C         -2.60570       -5.02738       -0.25499
C         -3.63185       -4.10015       -0.36682
H         -4.58448       -4.41821       -0.75905
C         -3.38797       -2.76241       -0.12403
H         -4.15569       -2.02564       -0.30277
C         -3.10051        0.32976        0.68211
C         -3.44590        0.30486        2.01291
H         -2.85891       -0.27631        2.70631
C         -4.54319        1.00954        2.46018
H         -4.83393        0.99092        3.49884
C         -5.30060        1.74934        1.57465
C         -4.95458        1.76521        0.23714
H         -5.56147        2.33506       -0.44868
C         -3.85911        1.05559       -0.20787
H         -3.59821        1.06297       -1.25348
C         -1.46865       -0.18018       -1.71944
C         -0.97954        1.10552       -1.84575
H         -0.71951        1.65399       -0.95728
C         -0.66905        1.64654       -3.09233
C         -1.07464        0.94316       -4.22014
H         -0.88335        1.35626       -5.19639
C         -1.56490       -0.34211       -4.10380
H         -1.75154       -0.91801       -4.99445
C         -1.65810       -0.97126       -2.86242
C          1.71254       -0.08622       -1.72724
C          1.21883       -1.37832       -1.77006
H          0.95436       -1.86946       -0.84801
C          0.90171       -1.99398       -2.98043
C          1.30195       -1.35912       -4.15053
H          1.10454       -1.82971       -5.09917
C          1.79006       -0.06827       -4.11611
H          1.96909        0.45258       -5.04151
C          1.89066        0.63561       -2.91617
C         -1.60511       -2.48350       -2.85304
H         -2.26918       -2.87703       -3.63134
H         -2.04300       -2.85648       -1.93105
C         -0.15532       -3.06539       -3.03096
H          0.05673       -3.82703       -2.27307
H         -0.07560       -3.60114       -3.98355
C          0.38284        2.71678       -3.20277
H          0.16359        3.51231       -2.48237
H          0.29738        3.20362       -4.18071
C          1.83539        2.14686       -2.99691
H          2.49238        2.48783       -3.80497
H          2.27746        2.57080       -2.09934
C          1.98615        2.26898        0.17868
C          0.83845        2.97599        0.46640
C          3.15120        2.92715       -0.15245
C          0.82019        4.34375        0.28566
C          3.12918        4.29403       -0.33997
C          1.94719        5.00017       -0.18073
C          3.47862       -0.20514        0.65635
C          3.94364       -1.39498        0.14584
C          4.17810        0.43676        1.65243
C          5.10928       -1.94601        0.63420
H          3.40163       -1.88850       -0.64346
C          5.34491       -0.11465        2.14230
H          3.80327        1.36304        2.05761
C          5.81457       -1.31135        1.63838
H          5.49246       -2.87247        0.23691
H          5.90984        0.37485        2.91998
Pd         0.21301       -0.25697        1.38657
Cl        -1.16802       -1.30966        2.82824
Cl         1.66526        0.30060        3.00677
H          3.99668        4.80629       -0.72363
H          4.04529        2.36234       -0.36749
H         -0.09350        4.90687        0.39821
H         -0.05279        2.46173        0.78520
C         -4.11639       -6.90906       -1.04086
C         -2.66675       -6.34701       -0.98362
C         -2.06575       -6.07652       -2.40039
F         -4.08560       -8.15276       -1.54451
F         -4.59490       -6.92941        0.21199
F         -4.87887       -6.11330       -1.80334
F         -1.89608       -7.24906       -0.37116
F         -0.78087       -5.73656       -2.23157
F         -2.16537       -7.17810       -3.15623
F         -2.71522       -5.04782       -2.96260
C         -6.50934        3.95007        1.54167
C         -6.52329        2.48297        2.06334
C         -7.78971        1.70280        1.60819
F         -5.32270        4.48333        1.86913
F         -6.65602        3.95368        0.20939
F         -7.50285        4.63650        2.12690
F         -6.52912        2.52787        3.39845
F         -7.73577        0.48651        2.17193
F         -8.88821        2.35567        2.01664
F         -7.77845        1.58294        0.27254
C          6.96650       -3.39547        2.44647
C          7.11956       -1.87629        2.13894
C          8.22180       -1.59471        1.07796
F          8.07728       -3.83637        3.05684
F          5.90621       -3.53990        3.25548
F          6.75989       -4.06635        1.30471
F          7.47894       -1.26758        3.27244
F          8.32493       -0.26315        0.95075
F          9.38685       -2.11328        1.49422
F          7.85460       -2.13361       -0.09392
C          3.08160        7.18134       -0.79873
C          1.76713        6.34876       -0.83045
C          1.27294        6.05641       -2.28257
F          2.81936        8.43212       -1.20880
F          3.52572        7.19307        0.46678
F          3.99629        6.60943       -1.59393
F          0.81936        7.04511       -0.19831
F          0.05292        5.51290       -2.18631
F          1.22827        7.19367       -2.98955
F          2.09678        5.16648       -2.85397
