72
-108.40200569
Cl         1.78666       -0.75398        2.65112
Cl        -1.03765        0.70336        2.75385
P         -1.15803        1.13383       -0.29287
P          2.28984       -0.10712       -0.32567
C          3.25524        1.50750       -0.07537
C          3.59418        1.66013        1.40825
C          4.52927        1.48550       -0.91226
C          3.38407       -1.64628       -0.07978
C          4.20284       -1.92166       -1.34753
C          1.48868       -0.39336       -2.01320
C          1.54713        0.78102       -2.96765
C         -1.11173       -0.21664       -1.51191
C          0.07595       -0.94922       -1.95391
C         -0.40381       -2.06683       -2.77081
C         -1.84805       -1.97922       -2.88619
C         -2.28285       -0.83633       -2.10555
C          2.38295        2.68935       -0.48015
H          4.08661        2.61632        1.59272
H          2.69557        1.63008        2.02462
H          5.04757        2.44353       -0.84656
H          4.31442        1.29819       -1.96337
C          4.33863       -1.50687        1.10243
H          3.59176       -2.33328       -2.14995
H          4.98207       -2.65846       -1.14535
H          2.10592       -1.18967       -2.43944
H          1.19908        0.49369       -3.96197
H          2.55541        1.17871       -3.07722
H          0.88838        1.57807       -2.63086
H          0.23503       -2.76438       -3.31678
H         -2.49142       -2.64544       -3.46589
Pd         0.48065        0.27322        1.14624
H         -3.31221       -0.50751       -1.94578
C          2.42472       -2.80097        0.17005
H          4.68961       -1.02146       -1.71858
H          5.11497       -0.76954        0.90702
H          3.81133       -1.23105        2.01317
H          4.84344       -2.45417        1.29722
H          1.92010       -2.67921        1.12747
H          1.67032       -2.86017       -0.61583
H          2.95805       -3.75327        0.19810
H          4.26672        0.88251        1.76025
H          5.22246        0.72058       -0.56650
H          2.17774        2.70345       -1.54736
H          1.43663        2.66835        0.05745
H          2.87527        3.63312       -0.23956
C         -2.84370        1.19807        0.36619
C         -3.31059        2.15546        1.23205
C         -4.64216        1.84460        1.50778
C         -4.93517        0.70863        0.79452
O         -3.84010        0.30136        0.08886
H         -2.74403        2.97702        1.63826
H         -5.30880        2.38760        2.15766
H         -5.88934        0.19642        0.78391
C         -0.77400        2.74682       -0.99730
C         -0.71334        3.89851       -0.25203
C         -0.39285        4.93593       -1.12880
C         -0.27178        4.37229       -2.37529
O         -0.49975        3.02729       -2.30809
H         -0.86572        3.97524        0.81253
H         -0.26477        5.97589       -0.87652
H         -0.02876        4.90214       -3.28797
Fe        -1.26985       -2.12339       -0.96082
C         -2.14163       -1.99873        0.90540
C         -0.84654       -2.63426        1.01241
C         -0.85426       -3.80898        0.16210
C         -2.17059       -3.91832       -0.44004
C         -2.97000       -2.80084        0.02777
H         -2.44665       -1.08947        1.42631
H         -0.03355       -2.29176        1.65421
H         -0.03719       -4.52433        0.04601
H         -2.50728       -4.71317       -1.10909
H         -4.00962       -2.59348       -0.23448
