171
-217.84757958
P         -1.58856        0.42056       -0.35312
P          1.61062       -0.32056       -0.22238
C         -0.81914        1.45172       -1.61154
C          0.98777       -1.21668       -1.64961
C          0.03441        0.90550       -2.56401
C          0.69553        1.77040       -3.45756
C          0.45361        3.13211       -3.38750
C         -0.41632        3.65191       -2.45311
C         -1.04520        2.80600       -1.56146
C          1.22518       -2.56745       -1.72128
C          0.72801       -3.30472       -2.77808
C         -0.02235       -2.68100       -3.75225
C         -0.27534       -1.32037       -3.69732
C          0.25405       -0.56441       -2.63350
Cl         1.50696        0.38252        2.94207
Cl        -1.69866       -0.13512        2.89219
C         -1.08415       -0.68175       -4.77182
C          1.64832        1.25203       -4.47743
H         -0.60164        4.71288       -2.41406
H         -1.71975        3.20688       -0.82316
H          1.80370       -3.04716       -0.94823
H          0.92537       -4.36233       -2.84049
H          0.95941        3.78813       -4.07582
H         -0.42192       -3.25353       -4.57229
C         -3.54502       -3.39277       -1.79542
C         -2.64069       -3.45993       -0.74235
C         -2.02467       -2.28200       -0.34253
C         -2.30615       -1.09734       -0.97619
C         -3.20259       -1.04595       -2.01508
C         -3.84622       -2.20100       -2.44410
H         -4.04856       -4.28670       -2.11168
H         -1.33394       -2.28426        0.48316
H         -3.40799       -0.09266       -2.47179
C         -4.76896        2.68703        1.96178
C         -3.44274        3.08776        2.08238
C         -2.48591        2.40221        1.34561
C         -2.84387        1.34929        0.54153
C         -4.15573        0.95821        0.44686
C         -5.14887        1.62242        1.15243
H         -5.52249        3.21111        2.51719
H         -1.44695        2.67661        1.41631
H         -4.40854        0.11681       -0.17409
C          4.27318       -3.04184        2.24752
C          2.89716       -3.22454        2.30266
C          2.10259       -2.39722        1.51936
C          2.66644       -1.40470        0.75576
C          4.02657       -1.22028        0.73814
C          4.86182       -2.04446        1.48075
H          4.90727       -3.69439        2.81846
H          1.03285       -2.51214        1.51148
H          4.43226       -0.42209        0.14357
C          3.87915        3.45025       -1.26248
C          2.83095        3.52460       -0.35427
C          2.15005        2.35218       -0.05413
C          2.49248        1.17298       -0.66692
C          3.51565        1.11989       -1.58167
C          4.23932        2.26552       -1.89279
H          4.44562        4.33922       -1.46978
H          1.35189        2.34693        0.66734
H          3.74710        0.17490       -2.04286
Pd        -0.06060        0.04480        1.36843
C         -0.84056       -5.10562       -0.16863
C         -2.33006       -4.76235        0.00841
C         -3.16829       -5.94209       -0.51993
C         -2.64905       -4.57126        1.50370
H         -0.57406       -5.99912        0.39560
H         -0.61328       -5.29002       -1.21782
H         -0.20427       -4.29001        0.17046
H         -2.94100       -6.85447        0.03138
H         -4.23464       -5.74605       -0.40909
H         -2.95850       -6.13266       -1.57228
H         -2.05939       -3.76523        1.93779
H         -3.70105       -4.32320        1.64292
H         -2.43857       -5.47986        2.06750
C         -6.27400       -2.56664       -2.92498
C         -4.91743       -2.18161       -3.54379
C         -4.54648       -3.19080       -4.64677
C         -5.05336       -0.78565       -4.18308
H         -7.06486       -2.54779       -3.67461
H         -6.24239       -3.56803       -2.49702
H         -6.54538       -1.87252       -2.12974
H         -3.56879       -2.96203       -5.06880
H         -4.51261       -4.20854       -4.26027
H         -5.27619       -3.16848       -5.45600
H         -5.36298       -0.04435       -3.44683
H         -4.11188       -0.46070       -4.62392
H         -5.80293       -0.79426       -4.97427
C         -4.15919        4.74421        3.87844
C         -3.00551        4.25096        2.98392
C         -2.53192        5.41742        2.09971
C         -1.85272        3.78772        3.89733
H         -4.54580        3.93516        4.49798
H         -3.82010        5.53851        4.54335
H         -4.97789        5.14546        3.28163
H         -3.33991        5.76639        1.45697
H         -2.19451        6.25738        2.70664
H         -1.70659        5.11232        1.45848
H         -2.15387        2.92167        4.48623
H         -0.97181        3.50805        3.32163
H         -1.55803        4.57946        4.58572
C         -7.03958        1.25560       -0.45225
C         -6.60222        1.14565        1.02039
C         -7.56104        1.98969        1.88136
C         -6.69570       -0.32230        1.47844
H         -8.07349        0.93457       -0.57772
H         -6.96004        2.28477       -0.80178
H         -6.41798        0.63522       -1.09663
H         -8.58699        1.63710        1.77593
H         -7.29802        1.92708        2.93713
H         -7.53994        3.03690        1.58025
H         -6.35990       -0.42497        2.51009
H         -7.72145       -0.68557        1.41837
H         -6.07636       -0.97123        0.86012
C          0.77714       -4.12122        3.38016
C          2.29315       -4.32532        3.18650
C          2.95256       -4.30289        4.57983
C          2.53443       -5.68897        2.51832
H          0.24194       -4.23301        2.43954
H          0.37115       -4.85760        4.07348
H          0.56494       -3.13051        3.78215
H          4.01323       -4.54365        4.52728
H          2.85150       -3.31827        5.03600
H          2.48495       -5.03070        5.24277
H          2.11264       -6.49739        3.11525
H          2.07387       -5.72107        1.53098
H          3.60030       -5.87993        2.39590
C          6.82866       -0.70869        0.57346
C          6.38744       -1.87329        1.48206
C          7.04559       -3.16739        0.96979
C          6.86304       -1.57882        2.91651
H          7.91289       -0.59812        0.58418
H          6.52522       -0.88094       -0.45894
H          6.39782        0.23462        0.90873
H          6.80560       -4.01486        1.61080
H          6.70097       -3.40128       -0.03738
H          8.13057       -3.06817        0.94095
H          6.62035       -2.39934        3.59068
H          7.94224       -1.42987        2.94723
H          6.38617       -0.67765        3.30153
C          2.27481        5.94192       -0.75800
C          2.48421        4.85960        0.31802
C          3.63885        5.26772        1.24906
C          1.19134        4.75050        1.14969
H          1.49193        5.64478       -1.45471
H          1.98182        6.88923       -0.30571
H          3.18422        6.11669       -1.33122
H          3.80476        4.50676        2.01146
H          4.56738        5.39110        0.69248
H          3.42082        6.20945        1.75240
H          0.92465        5.71503        1.58139
H          0.35973        4.42143        0.52755
H          1.30918        4.04501        1.97178
C          5.30193        3.33566       -3.91103
C          5.44948        2.23964       -2.83784
C          5.58612        0.87864       -3.54836
C          6.72620        2.49474       -2.01655
H          5.28049        4.32970       -3.46659
H          6.13576        3.30689       -4.61230
H          4.38200        3.20385       -4.47870
H          6.42853        0.88647       -4.23988
H          5.75895        0.07577       -2.83222
H          4.68986        0.64257       -4.12102
H          6.84733        1.73378       -1.24628
H          7.61092        2.47542       -2.65269
H          6.68847        3.46544       -1.52313
H         -1.90420       -1.33072       -5.07956
H          2.54544        1.86969       -4.51628
H         -0.47261       -0.48005       -5.65216
H         -1.51729        0.26165       -4.43656
H          1.19741        1.25657       -5.47068
H          1.96152        0.23195       -4.25133
