64
-97.21901217
Cl        -1.21914       -0.41415       -2.91148
Cl         1.93476       -0.57491       -2.88650
P          1.95381       -0.65138        0.36748
C          2.06722       -2.40409        0.96773
C          3.77344       -0.29888        0.20896
P         -1.25690       -0.33983        0.37687
C          1.17132        0.47571        1.57743
C         -0.27350        0.59604        1.61006
C         -0.60894        1.60146        2.60812
C          0.63446        2.09973        3.17264
C          1.73931        1.37693        2.56666
H         -1.61492        1.90041        2.90881
H          0.72062        2.84994        3.96213
Pd         0.33536       -0.69520       -1.31838
H          2.80145        1.51232        2.77814
C         -5.12649        1.65770       -0.98231
C         -4.79486        0.38986       -1.41647
C         -3.61683       -0.19783       -0.99072
C         -2.77421        0.48256       -0.14143
C         -3.10992        1.74225        0.29973
C         -4.28525        2.33492       -0.12234
H         -6.04254        2.11850       -1.31439
H         -5.44935       -0.14093       -2.08818
H         -3.34392       -1.18639       -1.32525
H         -2.44930        2.26285        0.96951
H         -4.54296        3.32408        0.21919
C         -2.41159       -4.42989        1.97804
C         -1.99812       -4.30009        0.66642
C         -1.65088       -3.05530        0.17368
C         -1.71495       -1.95500        0.99724
C         -2.13527       -2.07522        2.30169
C         -2.48355       -3.31952        2.79666
H         -2.68212       -5.39970        2.36275
H         -1.94745       -5.16582        0.02670
H         -1.33809       -2.93517       -0.85118
H         -2.18159       -1.19691        2.92635
H         -2.80922       -3.42088        3.81889
C          4.16301        0.62052       -0.92744
H          4.06478        0.14328        1.17097
C          4.37198       -1.71017        0.08654
H          5.43441       -1.70268        0.37449
C          3.57206       -2.73574        0.92972
H          4.35434       -2.00816       -0.97113
C          1.46299       -2.53112        2.34948
H          1.51512       -3.01026        0.23721
H          3.95865       -2.73864        1.95770
H          3.73075       -3.75829        0.55659
H          0.41550       -2.22795        2.35661
H          1.52043       -3.55751        2.71925
H          1.98924       -1.89003        3.05954
H          3.81375        0.22924       -1.88227
H          3.74534        1.61858       -0.80094
H          5.24781        0.72427       -0.99596
Fe         0.59370        2.35987        1.14805
C          1.20638        2.47004       -0.84080
C          1.89139        3.46256       -0.03404
C          0.89123        4.34005        0.54780
C         -0.41380        3.87019        0.11975
C         -0.21682        2.71502       -0.73559
H          1.66140        1.70157       -1.46864
H          2.97220        3.57130        0.07785
H          1.08636        5.20418        1.18627
H         -1.37171        4.33560        0.36095
H         -0.99193        2.15513       -1.26205
