115
-277.94176387
P         -1.96168       -0.57363       -0.03074
P          1.73423        0.55123       -0.17943
C         -2.01642       -2.36203        0.16388
C         -0.86534       -3.07936        0.40808
H          0.04313       -2.57271        0.68777
C         -0.86702       -4.44762        0.23081
H          0.04476       -5.01918        0.31085
C         -2.01620       -5.09410       -0.19321
C         -3.19659       -4.37700       -0.30997
H         -4.08231       -4.88150       -0.66083
C         -3.19909       -3.00978       -0.12273
H         -4.09491       -2.43673       -0.30570
C         -3.47032        0.13466        0.67179
C         -4.14533       -0.48493        1.69873
H         -3.76523       -1.40684        2.10894
C         -5.28923        0.08701        2.21823
H         -5.82273       -0.37451        3.03422
C         -5.76776        1.27597        1.70473
C         -5.08502        1.89125        0.67342
H         -5.46421        2.82323        0.28427
C         -3.93931        1.32226        0.15919
H         -3.41484        1.80152       -0.65036
C         -1.77861       -0.02523       -1.76366
C         -1.28396        1.26503       -1.83795
H         -0.98608        1.76520       -0.93127
C         -1.01592        1.87037       -3.06512
C         -1.46373        1.22672       -4.21263
H         -1.30496        1.68974       -5.17217
C         -1.95004       -0.06356       -4.14764
H         -2.16612       -0.59196       -5.06077
C         -2.00290       -0.75728       -2.93864
C          1.41822        0.07975       -1.91369
C          0.92366       -1.20796       -1.99107
H          0.71136       -1.74109       -1.08023
C          0.54908       -1.76980       -3.21075
C          0.89455       -1.08555       -4.36988
H          0.65183       -1.51485       -5.32749
C          1.38893        0.20166       -4.30130
H          1.52730        0.76249       -5.21015
C          1.54687        0.85167       -3.07728
C         -1.95064       -2.26915       -3.00997
H         -2.62731       -2.61380       -3.80005
H         -2.37233       -2.68801       -2.10020
C         -0.50447       -2.84317       -3.24913
H         -0.25778       -3.61418       -2.51129
H         -0.45292       -3.36311       -4.21233
C          0.03441        2.94430       -3.16782
H         -0.13189        3.69439       -2.38749
H         -0.10615        3.49448       -4.10510
C          1.49422        2.36390       -3.08905
H          2.09560        2.74168       -3.92403
H          2.00359        2.75326       -2.21113
C          2.12651        2.29967       -0.03609
C          1.13060        3.21192        0.23771
C          3.37876        2.72235       -0.43045
C          1.35009        4.55157       -0.00773
C          3.59076        4.06174       -0.69311
C          2.55507        4.97337       -0.54612
C          3.17245       -0.36747        0.41547
C          3.91826       -1.08407       -0.49283
C          3.55003       -0.33272        1.73669
C          5.03729       -1.77568       -0.07521
H          3.62855       -1.09736       -1.53080
C          4.66637       -1.02239        2.15616
H          2.97155        0.24009        2.44317
C          5.41298       -1.75466        1.25303
H          5.64051       -2.33538       -0.77234
H          4.97727       -0.99611        3.18873
Pd        -0.10170        0.14849        1.23398
Cl        -1.54753       -0.51406        2.83046
Cl         1.24059        1.25359        2.66686
H          4.52130        4.39164       -1.12645
H          4.15078        1.99658       -0.63394
H          0.55249        5.27146        0.09343
H          0.16532        2.87700        0.57960
C         -3.19364       -7.26015       -0.78473
C         -1.86978       -6.44439       -0.84802
C         -1.40745       -6.15698       -2.31166
F         -4.12074       -6.67472       -1.55532
F         -2.95795       -8.51321       -1.20376
F         -3.60592       -7.26905        0.49150
F         -0.91558       -7.15333       -0.24002
F         -1.38820       -7.29515       -3.01818
F         -2.23769       -5.26129       -2.86439
F         -0.18115       -5.62326       -2.24457
C         -6.58085        3.16923        3.10742
C         -7.00110        1.91042        2.29551
C         -8.01781        2.24580        1.16466
F         -5.76647        2.75936        4.09174
F         -5.92528        4.01699        2.30134
F         -7.67288        3.75407        3.62245
F         -7.59701        1.06170        3.13755
F         -7.50771        3.19835        0.37167
F         -8.21770        1.12450        0.45590
F         -9.17073        2.65750        1.71399
C          7.80862       -1.43566        1.84462
C          6.66429       -2.47648        1.68398
C          6.40055       -3.27860        2.99247
F          8.92519       -2.05744        2.25251
F          8.00472       -0.86795        0.64490
F          7.43451       -0.50173        2.73158
F          7.03637       -3.34900        0.74323
F          7.46065       -4.05909        3.25303
F          6.18295       -2.42762        4.00488
F          5.30933       -4.03240        2.79085
C          4.00038        6.86542       -1.42594
C          2.56298        6.28539       -1.29118
C          1.89855        5.98988       -2.67422
F          4.54009        6.90591       -0.19872
F          4.73479        6.07106       -2.21693
F          3.92815        8.10292       -1.94053
F          1.81067        7.18456       -0.65230
F          0.62644        5.64075       -2.44039
F          1.95185        7.08146       -3.44902
F          2.53082        4.95913       -3.25219
