75
-122.81191790
P          1.84898       -0.54045        0.12259
C          1.59684       -1.57883       -1.32023
C          1.25749       -2.89881       -1.12954
C          1.17790       -3.75012       -2.21718
C          1.44581       -3.27327       -3.48514
C          1.78901       -1.94851       -3.67001
C          1.86789       -1.09968       -2.58137
H          2.14187       -0.06490       -2.70735
H          1.99395       -1.57550       -4.65993
H          1.38010       -3.93505       -4.33323
H          0.90748       -4.78325       -2.07374
H          1.07196       -3.25979       -0.12986
C          3.26501       -1.25307        0.98950
C          4.20654       -1.92430        0.24114
C          5.31161       -2.48363        0.85707
C          5.47075       -2.36441        2.22300
C          4.53164       -1.68278        2.97020
C          3.43166       -1.12443        2.34851
H          2.71350       -0.56075        2.91697
H          4.65904       -1.57896        4.03528
H          6.33088       -2.79942        2.70537
H          6.04585       -3.01129        0.27078
H          4.07249       -2.00999       -0.82542
C          2.24996        1.14524       -0.35249
C          3.39940        1.79424        0.03236
C          3.57809        3.14018       -0.25894
C          2.55235        3.82798       -0.90789
C          1.38939        3.19189       -1.28281
C          1.24444        1.81925       -1.02689
O          0.08070        1.12753       -1.39689
C         -1.12715        1.77549       -1.09721
C         -1.29460        3.14811       -1.33912
C         -2.48749        3.74931       -1.00491
C         -3.51967        3.02520       -0.40860
C         -3.33420        1.67111       -0.16662
C         -2.15495        1.05282       -0.51146
P         -1.72868       -0.66192       -0.13664
C         -3.00743       -1.41472        0.88639
C         -4.29963       -1.43152        0.41225
C         -5.30174       -2.02074        1.16175
C         -5.00002       -2.59889        2.37843
C         -3.69970       -2.59583        2.84217
C         -2.70016       -2.00659        2.09016
H         -1.68101       -2.00885        2.44055
H         -3.46276       -3.05132        3.78964
H         -5.77965       -3.05708        2.96488
H         -6.31468       -2.03074        0.79416
H         -4.51662       -0.99793       -0.55153
C         -1.71651       -1.58826       -1.68231
C         -1.41098       -0.96226       -2.86885
C         -1.49084       -1.65946       -4.05971
C         -1.87215       -2.98631       -4.05413
C         -2.17062       -3.61538       -2.86179
C         -2.09487       -2.91178       -1.67322
H         -2.34070       -3.38657       -0.73680
H         -2.46564       -4.65176       -2.85626
H         -1.93030       -3.53342       -4.98087
H         -1.24696       -1.16972       -4.98805
H         -1.09116        0.06584       -2.85494
Pd        -0.06410       -0.00054        1.44096
Cl        -1.73282        0.98858        2.59997
Cl         1.35524        1.05959        2.83399
H         -4.10733        1.10884        0.32512
C         -4.80318        3.68385       -0.04682
H         -5.17829        3.30959        0.90668
H         -5.56309        3.49510       -0.80614
H         -4.68101        4.76364        0.04671
H         -2.61481        4.79998       -1.19685
S          0.04936        4.05924       -2.05937
H          2.65960        4.87974       -1.10616
C          4.80730        3.85127        0.18181
H          4.15110        1.25814        0.58531
H          5.66885        3.18228        0.18301
H          5.03741        4.68732       -0.47985
H          4.68452        4.24405        1.19189
