111
-148.55397561
P         -1.62712       -2.73290        0.21419
P         -0.43646        0.12737       -0.51227
C         -1.68341       -2.12595       -1.49795
C         -1.22777       -0.85905       -1.79793
C         -0.43152       -4.13864        0.34216
C          0.73466       -3.76925        1.23414
C         -2.14781       -2.94334       -2.50871
H         -2.46065       -3.94846       -2.27846
C         -2.18327       -2.47844       -3.81205
H         -2.55083       -3.11578       -4.59968
C         -1.74148       -1.20280       -4.10577
H         -1.76357       -0.84295       -5.12124
C         -1.25108       -0.39433       -3.09618
H         -0.86823        0.59070       -3.31291
Pd        -1.19505       -0.82628        1.44676
Cl        -2.33321       -1.72084        3.15721
Cl        -0.63877        1.08220        2.50057
C         -1.29530       -5.29878        0.87754
C         -3.18412       -3.58576        0.74134
H          1.43110       -4.60338        1.34704
H          1.28985       -2.91878        0.83336
H          0.38505       -3.49018        2.23026
H         -1.12927       -5.38906        1.95976
H         -0.95980       -6.25522        0.44910
H         -3.31803       -3.33361        1.80113
C         -2.81091       -5.07303        0.60889
C         -4.39535       -3.14811       -0.05432
H         -0.09458       -4.34576       -0.68210
H         -3.06336       -5.41576       -0.40381
H         -3.42607       -5.68346        1.28773
H         -5.30322       -3.64162        0.29983
H         -4.54636       -2.06870        0.01891
H         -4.28392       -3.39129       -1.11107
C         -0.94294        4.63606       -0.89203
C          0.33199        4.09550       -0.58678
C          0.45109        2.72019       -0.48015
C         -0.61407        1.89417       -0.72643
C         -1.82254        2.40652       -1.12058
C         -2.00743        3.77293       -1.25886
O         -1.16633        6.03475       -0.78844
C          1.56602        4.97137       -0.32035
H          1.38271        2.27357       -0.18161
H         -2.62893        1.71862       -1.30964
C         -3.35807        4.29729       -1.77128
C          3.77369       -1.50654        0.07149
C          3.24695       -0.57348        1.00374
C          1.97097       -0.08364        0.78712
C          1.26369       -0.41459       -0.33821
C          1.81391       -1.22229       -1.29825
C          3.08417       -1.75229       -1.14581
O          4.93338       -2.25631        0.39643
C          3.99342       -0.08614        2.25629
H          1.48589        0.52524        1.53086
H          1.22406       -1.46413       -2.16564
C          3.65253       -2.58874       -2.30387
C          1.50666        6.28279       -1.12438
C          1.65308        5.27385        1.18346
C          2.85655        4.23911       -0.75320
C         -4.00186        3.28223       -2.74324
C         -4.30675        4.50856       -0.58181
C         -3.18354        5.61357       -2.55074
C         -1.60208        6.45410        0.49877
H          0.66541        6.89925       -0.81829
H          2.41348        6.87034       -0.98308
H          1.39883        6.07570       -2.18853
H          0.77098        5.80781        1.52914
H          1.72646        4.35079        1.75809
H          2.52728        5.88363        1.40998
H          3.06071        3.37448       -0.12440
H          2.78219        3.90122       -1.78646
H          3.72008        4.89960       -0.67791
H         -4.89366        3.70299       -3.20720
H         -3.30681        3.01243       -3.53800
H         -4.30795        2.37115       -2.23144
H         -3.90510        5.23742        0.11800
H         -5.28026        4.86517       -0.91727
H         -4.45716        3.57591       -0.03864
H         -2.47727        5.48353       -3.37004
H         -4.13160        5.94952       -2.97002
H         -2.80815        6.40755       -1.91002
H         -2.56037        6.96589        0.41128
H         -1.70704        5.59483        1.16248
H         -0.88000        7.15256        0.92120
C          4.63643       -3.45987        1.08616
C          5.49432       -0.42053        2.21364
C          3.87660        1.45094        2.35567
C          3.35845       -0.72010        3.50562
C          5.16981       -2.81003       -2.17809
C          2.93310       -3.94741       -2.35088
C          3.41493       -1.84687       -3.63803
H          5.94634       -0.04196        1.29754
H          6.01931        0.02124        3.06027
H          5.66065       -1.49443        2.24821
H          4.44040        1.82899        3.20804
H          4.27071        1.92380        1.45690
H          2.84401        1.77202        2.48159
H          3.42960       -1.80563        3.47610
H          3.85515       -0.37559        4.41216
H          2.30335       -0.45909        3.58207
H          5.41015       -3.41811       -1.30945
H          5.56656       -3.31932       -3.05604
H          5.68923       -1.85816       -2.07315
H          3.08055       -4.50432       -1.42770
H          1.86052       -3.81514       -2.49017
H          3.30524       -4.55682       -3.17396
H          2.35455       -1.75023       -3.86513
H          3.87610       -2.38237       -4.46752
H          3.84508       -0.84634       -3.60315
H          4.06783       -3.24423        1.98918
H          4.04812       -4.12046        0.45193
H          5.56763       -3.95803        1.35663
