115
-277.94049210
P         -2.03961       -0.39462       -0.04773
P          1.56087        0.65611       -0.32067
C         -1.82172       -2.17517        0.16030
C         -0.57611       -2.70905        0.41657
H          0.25223       -2.06972        0.67205
C         -0.37202       -4.06543        0.27608
H          0.61521       -4.49186        0.36668
C         -1.41305       -4.88887       -0.11657
C         -2.68727       -4.35919       -0.24145
H         -3.49100       -5.00200       -0.56203
C         -2.89413       -3.00366       -0.08927
H         -3.87285       -2.58078       -0.25520
C         -3.57715        0.15369        0.71705
C         -4.20294       -0.57893        1.69932
H         -3.76407       -1.50288        2.03972
C         -5.37030       -0.11119        2.26877
H         -5.86873       -0.66128        3.05133
C         -5.91833        1.08551        1.85062
C         -5.28086        1.81559        0.86604
H         -5.71316        2.75341        0.55392
C         -4.11167        1.35112        0.30154
H         -3.61639        1.92001       -0.46839
C         -1.93758        0.23953       -1.75884
C         -1.40604        1.51644       -1.81132
H         -1.05806        1.97802       -0.90249
C         -1.16104        2.15255       -3.02859
C         -1.67925        1.56677       -4.17731
H         -1.53766        2.05453       -5.12728
C         -2.21757        0.29676       -4.13327
H         -2.49526       -0.19052       -5.05249
C         -2.24775       -0.43492       -2.94653
C          1.22162        0.22165       -2.06495
C          0.67257       -1.04164       -2.16068
H          0.45620       -1.58462       -1.25961
C          0.23242       -1.56037       -3.37682
C          0.56821       -0.86493       -4.53166
H          0.27627       -1.26050       -5.49010
C          1.12101        0.39734       -4.44917
H          1.25670        0.97204       -5.34976
C          1.34578        1.01195       -3.21680
C         -2.27934       -1.94182       -3.06345
H         -3.01171       -2.22352       -3.82823
H         -2.67920       -2.35750       -2.14166
C         -0.87709       -2.57849       -3.39402
H         -0.63637       -3.38534       -2.69367
H         -0.89721       -3.06788       -4.37413
C         -0.06446        3.17881       -3.14243
H         -0.13539        3.88456       -2.30857
H         -0.23891        3.79508       -4.03173
C          1.36508        2.52465       -3.20205
H          1.90701        2.88560       -4.08424
H          1.97583        2.87616       -2.37425
C          2.17239        2.34415       -0.22877
C          1.30254        3.37248        0.06237
C          3.44889        2.60915       -0.67896
C          1.66940        4.67317       -0.21354
C          3.80666        3.91047       -0.97518
C          2.89280        4.94116       -0.80568
C          2.86797       -0.40686        0.32726
C          3.49004       -1.30393       -0.51093
C          3.25862       -0.30883        1.64135
C          4.50060       -2.11107       -0.02916
H          3.19061       -1.36904       -1.54389
C          4.26733       -1.11321        2.12434
H          2.77424        0.40119        2.29076
C          4.89027       -2.02389        1.29256
H          5.00617       -2.81587       -0.67028
H          4.58885       -1.04145        3.15163
Pd        -0.22940        0.46023        1.18962
Cl        -1.63186       -0.05394        2.87108
Cl         1.14772        1.67964        2.48831
H          4.75117        4.12128       -1.45050
H          4.12040        1.79372       -0.89857
H          0.96666        5.48375       -0.09645
H          0.31638        3.15867        0.44063
C         -2.25282       -7.23354       -0.59005
C         -1.07170       -6.22808       -0.71912
C         -0.68415       -5.93944       -2.20326
F         -3.27773       -6.82663       -1.35169
F         -1.83744       -8.45070       -0.97389
F         -2.62810       -7.25748        0.69741
F         -0.00909       -6.75510       -0.10600
F         -0.46157       -7.09109       -2.85073
F         -1.67155       -5.24375       -2.78313
F          0.42299       -5.18445       -2.18872
C         -6.82706        2.82419        3.38959
C         -7.18030        1.60285        2.49290
C         -8.22601        1.95627        1.39437
F         -5.97846        2.39596        4.33650
F         -6.23311        3.76540        2.64157
F         -7.94634        3.30360        3.95280
F         -7.71706        0.66310        3.27597
F         -7.77951        2.98951        0.66676
F         -8.36815        0.87717        0.61021
F         -9.39512        2.26125        1.97795
C          7.29811       -2.00184        1.92591
C          6.02243       -2.88210        1.79625
C          5.62401       -3.55557        3.14249
F          8.30972       -2.74696        2.39632
F          7.59212       -1.53938        0.70123
F          7.04385       -0.97381        2.74885
F          6.28616       -3.85491        0.91949
F          6.55861       -4.45807        3.47857
F          5.50928       -2.62002        4.09545
F          4.44116       -4.16063        2.95623
C          4.50852        6.63835       -1.78160
C          3.02079        6.23283       -1.57515
C          2.26399        6.00040       -2.92259
F          5.10087        6.63961       -0.57822
F          5.11195        5.74848       -2.58157
F          4.55813        7.86553       -2.32285
F          2.40806        7.22254       -0.92112
F          0.97458        5.78633       -2.62674
F          2.39309        7.07695       -3.70940
F          2.75802        4.90718       -3.51957
