87
-129.18563909
P         -1.72655       -0.38065       -0.09011
P          1.59846        0.34287       -0.19231
C         -1.46327        0.95946       -1.27967
C          1.31905       -0.65082       -1.66197
C         -0.50951        0.92192       -2.29586
C         -0.29999        2.07677       -3.07425
C         -1.06321        3.20623       -2.83582
C         -2.01197        3.22262       -1.83775
C         -2.20105        2.09864       -1.05824
C          2.11230       -1.74761       -1.89401
C          1.91262       -2.52079       -3.02053
C          0.91461       -2.18580       -3.91129
C          0.10177       -1.08534       -3.69457
C          0.30893       -0.29437       -2.54673
Cl         1.34292        1.08840        2.92666
Cl        -1.41927       -0.61332        3.06578
H         -2.59460        4.11111       -1.65721
H         -2.92849        2.11321       -0.26363
H          2.89476       -1.99701       -1.19678
H          2.53260       -3.38367       -3.20062
H         -0.89963        4.08396       -3.43789
H          0.75344       -2.78789       -4.78936
C         -0.87144       -4.58873       -1.57772
C         -0.33460       -4.16651       -0.36926
C         -0.62926       -2.88263        0.07204
C         -1.42211       -2.04782       -0.68179
C         -1.97240       -2.48338       -1.86391
C         -1.69534       -3.76057       -2.31481
H         -0.63938       -5.57684       -1.93689
C          0.57390       -5.04566        0.41553
H         -0.25657       -2.54445        1.02358
H         -2.59677       -1.81626       -2.43666
H         -2.11097       -4.10349       -3.24808
C         -5.88729       -0.04487        1.73143
C         -5.62690       -1.00599        0.77487
C         -4.36041       -1.11245        0.23129
C         -3.36515       -0.25758        0.64490
C         -3.62382        0.70114        1.59727
C         -4.88784        0.81615        2.16282
H         -6.87348        0.04174        2.15478
H         -6.40934       -1.67315        0.45215
H         -4.14311       -1.86090       -0.51293
H         -2.83232        1.35569        1.92354
C         -5.16170        1.86171        3.18589
C          4.98078       -1.46207        2.26979
C          5.11069       -0.18397        1.76299
C          4.08979        0.36735        1.01206
C          2.95116       -0.36385        0.76893
C          2.81811       -1.63548        1.27688
C          3.82982       -2.20342        2.04052
H          5.77578       -1.89375        2.85362
H          6.00532        0.38526        1.95549
H          4.17284        1.36786        0.62052
H          1.92174       -2.19734        1.07770
C          3.68247       -3.58591        2.57141
C          2.43304        4.65351       -1.34551
C          3.16888        3.63322       -1.91596
C          2.92289        2.32104       -1.55614
C          1.95221        2.04540       -0.62212
C          1.22393        3.05894       -0.04436
C          1.44491        4.38130       -0.40919
H          2.62121        5.67581       -1.62606
H          3.92941        3.85785       -2.64569
H          3.47397        1.50932       -2.00481
H          0.47186        2.82436        0.68999
C          0.65626        5.47690        0.21662
Pd        -0.04184        0.11708        1.45146
C          0.73025        2.11463       -4.14965
C         -0.96954       -0.76355       -4.67768
H          1.28578        3.05308       -4.12187
H          1.45224        1.30467       -4.04120
H          0.26883        2.02694       -5.13393
H         -1.68020       -0.04205       -4.27301
H         -0.54559       -0.34341       -5.59055
H         -1.52952       -1.65938       -4.94985
H          0.50223       -4.83170        1.48292
H          0.32626       -6.09816        0.27105
H          1.61125       -4.89796        0.11158
H         -5.37182        2.82179        2.71243
H         -6.02010        1.59524        3.80406
H         -4.30485        1.99261        3.84846
H          2.67497       -3.74936        2.95693
H          3.86832       -4.32348        1.78935
H          4.38307       -3.77482        3.38592
H          0.58300        6.33951       -0.44718
H         -0.35873        5.14738        0.44411
H          1.12041        5.80485        1.14770
