111
-148.55523890
P         -2.48148       -2.06848       -1.15177
P          0.12053       -0.37692       -0.54619
C         -1.34237       -1.65779       -2.50154
C         -0.18873       -0.95699       -2.22385
C         -3.21524       -3.75508       -1.35661
C         -2.61336       -4.74052       -0.37875
C         -1.62631       -2.02796       -3.80052
H         -2.53947       -2.55800       -4.01629
C         -0.74543       -1.70152       -4.81736
H         -0.96625       -1.98978       -5.83214
C          0.41392       -1.00473       -4.53446
H          1.09798       -0.74871       -5.32673
C          0.69151       -0.62728       -3.23280
H          1.58339       -0.06852       -2.99532
Pd        -1.35343       -1.55227        0.79228
Cl        -3.05815       -2.42762        1.95626
Cl        -0.10425       -0.99402        2.57638
C         -4.72217       -3.49847       -1.16781
C         -4.01757       -1.03771       -1.14518
H         -2.79185       -4.42407        0.64988
H         -3.04735       -5.73615       -0.49694
H         -1.53207       -4.82278       -0.51297
H         -4.97951       -3.67334       -0.11403
H         -5.31140       -4.23009       -1.74137
H         -4.16613       -0.72073       -0.10414
C         -5.10864       -2.04295       -1.55833
C         -3.88070        0.16172       -2.05762
H         -3.00700       -4.06197       -2.38945
H         -5.25299       -1.98126       -2.64578
H         -6.07618       -1.76113       -1.11574
H         -3.66809       -0.15199       -3.08131
H         -4.79628        0.75744       -2.07542
H         -3.06207        0.80929       -1.73641
C         -1.14046        3.96646       -0.02691
C         -1.07562        3.41386       -1.33224
C         -0.68172        2.09308       -1.46714
C         -0.43539        1.31554       -0.36648
C         -0.60451        1.81423        0.89734
C         -0.99350        3.12525        1.10534
O         -1.31099        5.36599        0.14454
C         -1.38599        4.23518       -2.59333
H         -0.54777        1.65517       -2.44029
H         -0.41537        1.15402        1.72583
C         -1.21200        3.61483        2.54484
C          4.40782       -0.76998        0.92438
C          3.87068        0.51201        0.64241
C          2.56280        0.58851        0.19531
C          1.82596       -0.54286       -0.03844
C          2.37283       -1.78680        0.13303
C          3.67634       -1.93585        0.57910
O          5.65918       -0.88492        1.58635
C          4.65920        1.81334        0.85760
H          2.09006        1.54324        0.04322
H          1.75516       -2.64531       -0.06820
C          4.25626       -3.35104        0.72815
C         -2.46458        5.29684       -2.31114
C         -0.09752        4.90777       -3.09049
C         -1.93337        3.32707       -3.71815
C          0.12105        4.12429        3.11375
C         -2.27495        4.72677        2.59959
C         -1.72176        2.46065        3.43890
C         -0.09023        6.09315        0.20614
H         -2.73180        5.83541       -3.21999
H         -3.36645        4.83135       -1.91490
H         -2.12040        6.02876       -1.58465
H          0.31249        5.57806       -2.33889
H          0.66296        4.16145       -3.31929
H         -0.28357        5.48853       -3.99358
H         -1.17680        2.63448       -4.08378
H         -2.78844        2.74949       -3.36881
H         -2.25963        3.92249       -4.57057
H          0.00059        4.47250        4.13922
H          0.86787        3.33068        3.11226
H          0.51344        4.94818        2.52227
H         -3.21046        4.38468        2.15824
H         -2.47475        5.02773        3.62767
H         -1.95356        5.61085        2.05488
H         -2.00277        2.82979        4.42486
H         -2.59722        1.98552        2.99711
H         -0.95909        1.69824        3.58952
H          0.76015        5.42121        0.08279
H         -0.07473        6.84745       -0.58044
H         -0.01440        6.60196        1.16690
C          5.56335       -0.90843        3.00517
C          4.42585        2.31673        2.29027
C          6.16256        1.59971        0.60541
C          4.18759        2.90709       -0.12857
C          5.77581       -3.35908        0.48131
C          3.94382       -3.87997        2.13638
C          3.62826       -4.31054       -0.30830
H          3.36578        2.49796        2.46611
H          4.76217        1.58880        3.02443
H          4.96209        3.24830        2.46936
H          6.71252        2.53585        0.69856
H          6.58860        0.89618        1.31617
H          6.33111        1.20536       -0.39611
H          3.17361        3.23903        0.09041
H          4.83020        3.78518       -0.06814
H          4.21566        2.54203       -1.15491
H          6.00723       -2.94512       -0.49952
H          6.30257       -2.76708        1.22540
H          6.17445       -4.37234        0.52471
H          4.38736       -3.24869        2.90237
H          2.86804       -3.90208        2.30910
H          4.32860       -4.89082        2.26866
H          2.57409       -4.49157       -0.10389
H          4.12745       -5.27912       -0.29070
H          3.71871       -3.90569       -1.31595
H          6.12822       -0.07592        3.42422
H          4.52057       -0.83479        3.31672
H          5.99226       -1.83527        3.38567
