58
-89.86866309
P          1.61933        0.31837        0.87450
C          3.02941        1.39553        0.59984
C          4.16678        0.90082        0.00334
C          5.24648        1.73605       -0.21951
C          5.17736        3.06329        0.15534
C          4.03287        3.55640        0.75037
C          2.95471        2.71806        0.97238
H          2.04935        3.09324        1.42278
H          4.20397       -0.13570       -0.28993
C          1.97655       -1.34992        0.30388
C          1.95338       -1.59217       -1.05144
C          2.20448       -2.86494       -1.53020
C          2.48335       -3.88758       -0.64586
C          2.52321       -3.63734        0.71152
C          2.27424       -2.36257        1.18703
H          2.32769       -2.15469        2.24300
H          1.74055       -0.78031       -1.72905
C          1.19564        0.38144        2.66116
C          0.06366       -0.54391        3.07451
C         -1.31332       -0.07666        2.63577
P         -1.63910       -0.24248        0.83599
C         -3.29765        0.36786        0.52285
C         -3.56943        1.70480        0.70140
C         -4.84262        2.18557        0.45161
C         -5.83290        1.32254        0.02514
C         -5.55436       -0.01828       -0.15318
C         -4.28046       -0.49583        0.09651
H         -4.04554       -1.53846       -0.04456
H         -2.78281        2.36817        1.02516
C         -1.45554       -1.92811        0.23627
C         -1.41799       -2.11986       -1.12628
C         -1.25804       -3.39203       -1.64277
C         -1.14090       -4.46825       -0.78620
C         -1.19492       -4.27509        0.58018
C         -1.35806       -3.00088        1.09288
H         -1.42481       -2.84615        2.15693
H         -1.51736       -1.26526       -1.77695
Pd        -0.14020        0.89687       -0.51799
Cl         1.24468        2.21551       -1.69032
Cl        -1.81649        1.13764       -1.99837
H         -2.10383       -0.64378        3.13349
H         -1.46643        0.97165        2.89847
H          0.25158       -1.54935        2.67995
H          0.07280       -0.65770        4.16985
H          2.12010        0.13963        3.19150
H          0.95528        1.41740        2.90622
H          6.13751        1.35181       -0.68821
H          3.97622        4.59375        1.03662
H          2.17694       -3.05734       -2.59009
H          2.74881       -4.43439        1.40080
H         -5.05864        3.23279        0.58536
H         -6.32585       -0.69116       -0.48976
H         -1.22062       -3.54051       -2.70937
H         -1.10997       -5.11677        1.24775
H          6.01651        3.71645       -0.02056
H          2.67330       -4.88192       -1.01580
H         -6.82422        1.69681       -0.17218
H         -1.00992       -5.46108       -1.18466
