105
-153.06723806
Cl        -0.79813        2.63045       -2.66158
Pd        -0.07723        1.68776       -0.74486
P          1.09222        0.59863        0.99404
N          0.43959       -0.80067        1.85263
C         -0.07104       -2.05828        1.55148
C         -0.03289       -2.65555        0.26867
C         -0.66267       -3.89823        0.05469
C         -0.64009       -4.49913       -1.33121
C         -0.96568       -5.99992       -1.36321
C         -2.20723       -6.30233       -0.51855
C         -1.99063       -5.88382        0.94461
C         -1.29877       -4.55306        1.11093
C         -1.28062       -3.97472        2.37350
C         -0.67965       -2.76169        2.59004
H         -0.70335       -2.31772        3.57019
H         -1.75969       -4.48956        3.18916
H         -2.95132       -5.84895        1.47435
H         -3.06595       -5.75689       -0.93005
H         -1.10056       -6.35063       -2.39620
H         -1.35585       -3.95627       -1.95933
C          0.69978       -2.02884       -0.85661
C         -0.02067       -1.23648       -1.78327
C          0.66481       -0.68316       -2.86750
C          1.98522       -0.98344       -3.08567
C          2.67833       -1.84422       -2.24029
C          4.08734       -2.23742       -2.59807
C          4.50099       -3.57979       -1.97776
C          4.21971       -3.58343       -0.47170
C          2.73401       -3.31761       -0.16750
C          2.04349       -2.35477       -1.10621
H          2.18588       -4.26689       -0.18690
H          4.83511       -2.81318        0.00641
H          5.55944       -3.79700       -2.18029
H          4.77193       -1.44897       -2.26786
H          2.49424       -0.56980       -3.93958
H          0.12847       -0.03693       -3.53971
N         -1.41504       -1.06966       -1.65249
P         -1.97919        0.33066       -0.75274
C         -2.60268       -0.04990        0.87824
C         -2.45564        0.89389        1.86556
C         -2.94461        0.63913        3.13476
C         -3.59031       -0.55690        3.41664
C         -3.74091       -1.49019        2.40024
C         -3.25540       -1.23322        1.13112
H         -3.38222       -1.95589        0.34192
H         -4.23413       -2.42383        2.61061
C         -4.07574       -0.85104        4.79308
H         -2.83160        1.37177        3.91569
H         -1.96700        1.82862        1.63709
C         -3.20239        1.26286       -1.66658
C         -3.49136        0.87215       -2.95106
C         -4.41328        1.58588       -3.69599
C         -5.04282        2.70001       -3.15682
C         -4.74126        3.07302       -1.85334
C         -3.81894        2.35801       -1.11084
H         -3.57647        2.65062       -0.10198
H         -5.23140        3.93007       -1.42401
C         -6.04980        3.45863       -3.94933
H         -4.64517        1.28371       -4.70291
H         -2.98393        0.01524       -3.36500
H         -1.92288       -1.82580       -1.21137
H          0.56429       -0.59833        2.83710
C          1.19296        1.90243        2.23984
C          0.26986        1.96275        3.25623
C          0.35863        2.95017        4.21995
C          1.37888        3.88968        4.17559
C          2.31789        3.80182        3.15768
C          2.22394        2.81150        2.19735
H          2.95311        2.74740        1.40599
H          3.12364        4.51492        3.12060
C          1.49042        4.94160        5.22364
H         -0.36515        2.99497        5.01582
H         -0.51412        1.22818        3.30273
C          2.80275        0.28933        0.55632
C          3.38501        0.83644       -0.56225
C          4.73401        0.64944       -0.79767
C          5.51400       -0.07352        0.09465
C          4.91150       -0.60944        1.22458
C          3.55965       -0.42422        1.45505
H          3.08938       -0.82536        2.33923
H          5.50656       -1.17261        1.92309
C          6.96001       -0.30484       -0.17481
H          5.19138        1.07193       -1.67601
H          2.78986        1.42960       -1.23579
Cl         1.49632        3.29205       -0.63253
H         -1.39926       -6.64854        1.46231
H         -0.11180       -6.56520       -0.96911
H         -2.47447       -7.36641       -0.58633
H          0.34042       -4.31783       -1.78823
H          4.54356       -4.53199       -0.02089
H          2.61921       -2.94278        0.85708
H          4.18576       -2.27386       -3.69054
H          3.93541       -4.39013       -2.45480
H         -4.95538       -1.49586        4.77093
H         -3.30333       -1.35516        5.37562
H         -4.34991        0.06483        5.31852
H         -7.04759        3.04024       -3.81033
H         -6.07897        4.50684       -3.64862
H         -5.81652        3.42727       -5.01452
H          2.10502        4.59574        6.05586
H          1.94504        5.84887        4.82338
H          0.50938        5.21001        5.61808
H          7.38429        0.50456       -0.77049
H          7.52835       -0.36469        0.75439
H          7.10834       -1.23766       -0.72067
