87
-129.18594384
P         -1.60828       -0.30772       -0.37173
P          1.66644        0.22594        0.14199
C         -1.17661        0.96227       -1.56664
C          1.50637       -0.81631       -1.32636
C         -0.10478        0.76278       -2.42832
C          0.22661        1.78009       -3.34548
C         -0.53018        2.93987       -3.36989
C         -1.59240        3.11558       -2.50849
C         -1.91263        2.12104       -1.60578
C          2.20050       -2.00270       -1.30121
C          2.07085       -2.91401       -2.33046
C          1.22605       -2.63655       -3.38244
C          0.50875       -1.45373       -3.42773
C          0.65926       -0.51299       -2.39043
Cl         0.99913        0.00703        3.31496
Cl        -1.65476       -1.65664        2.58520
H         -2.16772        4.02642       -2.53595
H         -2.74354        2.24796       -0.93197
H          2.84558       -2.22230       -0.46662
H          2.61792       -3.84216       -2.30403
H         -0.27352        3.71496       -4.07195
H          1.10912       -3.34918       -4.18125
C         -2.31493       -4.28025       -2.45281
C         -1.43750       -4.22438       -1.37850
C         -1.25633       -3.00712       -0.73352
C         -1.91304       -1.88113       -1.17221
C         -2.77420       -1.94153       -2.24240
C         -2.98061       -3.14917       -2.88331
H         -2.47238       -5.22115       -2.95197
C         -0.72668       -5.44189       -0.90272
H         -0.59181       -2.94240        0.11151
H         -3.27083       -1.04371       -2.57582
H         -3.65521       -3.20527       -3.72184
C         -5.21250        1.00458        2.08787
C         -5.29840       -0.12311        1.29532
C         -4.21124       -0.51972        0.53973
C         -3.04858        0.21300        0.58136
C         -2.95970        1.33420        1.37395
C         -4.04433        1.75289        2.13406
H         -6.05523        1.30993        2.68438
H         -6.20959       -0.69803        1.27073
H         -4.26023       -1.40469       -0.07319
H         -2.03940        1.89208        1.40718
C         -3.92962        2.95068        3.00971
C          5.50096       -0.76744        2.38868
C          4.42770       -1.63354        2.45375
C          3.25795       -1.33408        1.78150
C          3.17013       -0.17363        1.04786
C          4.23826        0.69131        0.98313
C          5.41935        0.41122        1.66050
H          6.41470       -1.00039        2.90846
H          4.49928       -2.54062        3.03126
H          2.40713       -1.99455        1.83899
H          4.15552        1.59585        0.40520
C          6.58194        1.33630        1.57224
C          1.27048        4.69689       -0.56496
C          2.13979        3.95808       -1.34380
C          2.27621        2.59943       -1.12728
C          1.54177        1.99446       -0.13491
C          0.69863        2.73315        0.66306
C          0.54451        4.09801        0.45544
H          1.14922        5.75154       -0.74449
H          2.70172        4.43693       -2.12882
H          2.93537        2.00354       -1.73845
H          0.17038        2.25102        1.46735
C         -0.41574        4.88264        1.27785
Pd        -0.14447       -0.45372        1.43933
C          1.37241        1.63724       -4.28605
C         -0.40986       -1.20827       -4.57442
H          2.02001        0.80613       -4.00470
H          1.02043        1.46117       -5.30325
H          1.98308        2.54119       -4.29479
H         -1.12309       -0.41370       -4.35291
H          0.14881       -0.92251       -5.46642
H         -0.98338       -2.10556       -4.81111
H         -1.29352       -5.93744       -0.11340
H         -0.58090       -6.15633       -1.71414
H          0.25688       -5.18952       -0.50343
H         -3.42668        2.69844        3.94430
H         -3.35536        3.73896        2.52076
H         -4.91134        3.35860        3.25434
H          7.23037        1.06511        0.73793
H          6.25429        2.36620        1.42320
H          7.17775        1.30778        2.48566
H         -1.40732        4.87726        0.82281
H         -0.50424        4.46607        2.28233
H         -0.09484        5.92058        1.37618
