58
-89.86793451
P          1.62181        0.35900        0.86422
C          3.04557        1.42886        0.62978
C          2.94736        2.76419        0.94704
C          4.03657        3.59669        0.75970
C          5.21573        3.08459        0.25522
C          5.30863        1.74418       -0.06362
C          4.21782        0.91481        0.12416
H          4.27366       -0.13221       -0.12571
H          2.01591        3.15273        1.32765
C          1.98707       -1.30962        0.29447
C          2.02053       -1.53126       -1.06412
C          2.26807       -2.80095       -1.55214
C          2.48796       -3.84189       -0.67251
C          2.47301       -3.61268        0.68917
C          2.22687       -2.34085        1.17379
H          2.23883       -2.15030        2.23411
H          1.85507       -0.70324       -1.73547
C          1.18407        0.42255        2.64962
C          0.04125       -0.48812        3.06655
C         -1.33025       -0.00780        2.62541
P         -1.66493       -0.21513        0.83267
C         -3.32112        0.39505        0.50920
C         -4.30082       -0.46708        0.07267
C         -5.57231        0.01181       -0.18653
C         -5.85152        1.35243       -0.00766
C         -4.86428        2.21396        0.42878
C         -3.59350        1.73184        0.68805
H         -2.80903        2.39414        1.01920
H         -4.06532       -1.50948       -0.06898
C         -1.48742       -1.91677        0.27532
C         -1.40632       -2.96908        1.15869
C         -1.24031       -4.25582        0.67930
C         -1.16626       -4.48194       -0.68104
C         -1.26775       -3.42636       -1.56485
C         -1.43198       -2.14165       -1.08172
H         -1.52285       -1.30362       -1.75495
H         -1.48735       -2.78843        2.21770
Pd        -0.15168        0.83803       -0.57277
Cl         1.38167        2.02071       -1.70989
Cl        -1.84740        1.17218       -2.00209
H         -2.12726       -0.55075        3.13956
H         -1.46522        1.04861        2.86436
H          0.21697       -1.49774        2.67765
H          0.04901       -0.59610        4.16251
H          2.10422        0.17241        3.18370
H          0.95494        1.46175        2.89196
H          3.96198        4.64393        1.00254
H          6.22718        1.34493       -0.46128
H          2.28469       -2.97636       -2.61518
H          2.65291       -4.42431        1.37488
H         -6.34135       -0.65981       -0.53115
H         -5.08068        3.26107        0.56280
H         -1.16849       -5.08149        1.36808
H         -1.21576       -3.60077       -2.62691
H          6.06376        3.73302        0.10652
H          2.67544       -4.83411       -1.04935
H         -6.84088        1.72779       -0.21254
H         -1.03266       -5.48445       -1.05357
