58
-89.86573813
P          1.67487        0.20590        0.79176
C          2.84896        1.55700        0.65664
C          4.14941        1.31188        0.27961
C          5.04305        2.36212        0.17210
C          4.62575        3.65043        0.44309
C          3.31944        3.89102        0.82123
C          2.42791        2.83835        0.92873
H          1.40187        3.01073        1.21426
H          4.45859        0.30144        0.06631
C          2.33122       -1.28576        0.03159
C          2.59524       -2.42145        0.76386
C          3.05969       -3.55653        0.12436
C          3.25724       -3.54711       -1.24249
C          2.99488       -2.40511       -1.97267
C          2.53062       -1.27250       -1.33040
H          2.30863       -0.37241       -1.88238
H          2.43270       -2.42382        1.82880
C          1.35919       -0.00456        2.59278
C          0.12442       -0.81601        2.94401
C         -1.17935       -0.10151        2.62103
P         -1.64425       -0.26142        0.85352
C         -3.20101        0.59944        0.57803
C         -3.34850        1.87963        1.06300
C         -4.52471        2.57181        0.83487
C         -5.54295        1.98012        0.11417
C         -5.38600        0.70170       -0.38292
C         -4.20952        0.01244       -0.15183
H         -4.06505       -0.97449       -0.55972
H         -2.53915        2.33929        1.60776
C         -1.76789       -2.02069        0.50133
C         -0.73403       -2.66040       -0.14207
C         -0.80206       -4.02042       -0.37928
C         -1.90645       -4.73549        0.03863
C         -2.93515       -4.09483        0.70092
C         -2.86106       -2.73383        0.93880
H         -3.64772       -2.22559        1.47358
H          0.13683       -2.10100       -0.43588
Pd        -0.10055        0.64313       -0.63723
Cl         1.28225        1.83657       -1.94394
Cl        -1.84903        0.81601       -2.03926
H         -2.01674       -0.52209        3.18347
H         -1.12143        0.95749        2.87686
H          0.15139       -1.78320        2.42434
H          0.14942       -1.06246        4.01721
H          2.26561       -0.44721        3.01237
H          1.28297        0.99884        3.01639
H          6.06152        2.17475       -0.12604
H          2.99260        4.89682        1.02797
H          3.26378       -4.44893        0.69297
H          3.14715       -2.39603       -3.03937
H         -4.64241        3.57360        1.21418
H         -6.17483        0.24384       -0.95684
H          0.00985       -4.51945       -0.88225
H         -3.79303       -4.65418        1.03628
H          5.32020        4.47015        0.35647
H          3.61712       -4.43282       -1.74019
H         -6.45805        2.51984       -0.06753
H         -1.96242       -5.79594       -0.14580
