72
-98.09681373
Fe        -0.00520        2.80764        0.06628
P          1.84545       -0.05733        0.01601
P         -1.84037       -0.05303        0.02787
C          1.38514        1.55681        0.75980
C          0.35023        1.77171        1.75755
C          0.29740        3.19091        2.06058
C          1.30092        3.85402        1.24768
C          1.99635        2.84411        0.46752
C         -1.41565        1.59712       -0.65712
C         -2.00920        2.86874       -0.27173
C         -1.35979        3.92213       -1.03308
C         -0.36586        3.30096       -1.88932
C         -0.42090        1.86478       -1.68076
C          3.16619       -0.85824        1.06347
C          4.44865       -0.73162        0.21394
C          2.86005        0.24920       -1.51452
C          4.28618        0.29753       -0.93350
C         -3.18798       -0.76684       -1.03509
C         -4.38831        0.07979       -0.57853
C         -2.90340        0.18920        1.53624
C         -4.31603        0.41207        0.94160
H         -0.29959        1.00331        2.17518
H         -0.38131        3.67262        2.76826
H          1.52290        4.92374        1.25184
H          2.81288        3.02175       -0.23508
H         -2.80280        3.00508        0.46571
H          0.19426        1.11898       -2.17999
Cl         1.61622       -3.04436       -0.36450
Cl        -1.56838       -3.11374        0.16289
Pd        -0.00260       -1.50724       -0.03856
H          2.88386       -1.91105        1.18276
C          3.29981       -0.22092        2.44518
H          2.56133        1.21933       -1.92957
C          2.71819       -0.84823       -2.57002
H          4.71512       -1.71078       -0.20974
H          5.29419       -0.45496        0.85944
H          4.50399        1.30707       -0.55476
H          5.02303        0.11283       -1.72960
H         -1.58111        4.99000       -0.97268
H          0.28532        3.81962       -2.59688
H          4.26076       -0.51782        2.88797
H          3.55701       -0.77425       -3.27599
H         -3.33199       -1.80913       -0.72769
C         -2.89587       -0.69733       -2.53598
H         -2.54432        1.08669        2.05340
C         -2.86175       -1.01385        2.47729
H         -5.33435       -0.42445       -0.83047
H         -4.39010        1.01200       -1.16253
H         -4.65386        1.44289        1.12439
H         -5.03024       -0.22063        1.48691
H         -3.84499       -0.61106       -3.08319
H         -3.09457       -1.91645        1.89729
C          2.17096       -0.59885        3.38876
H          2.26939       -0.11614        4.36371
H          1.20527       -0.31251        2.97747
H          2.13861       -1.67726        3.55569
C          1.40987       -0.81551       -3.33898
H          1.29679        0.11877       -3.89220
H          1.33889       -1.63246       -4.06081
H          0.55873       -0.90372       -2.66642
C         -2.12287       -1.90371       -3.04834
H         -1.20738       -2.06204       -2.47990
H         -2.71078       -2.81818       -2.94883
H         -1.84858       -1.80184       -4.10071
C         -1.54491       -1.19018        3.21408
H         -1.56648       -2.04982        3.88783
H         -0.72131       -1.35015        2.51960
H         -1.30532       -0.31111        3.81512
H          3.36158        0.86872        2.32787
H          2.84626       -1.82052       -2.07771
H         -2.35598        0.23351       -2.75134
H         -3.67853       -0.92238        3.20701
