72
-108.40243557
Cl         1.69900       -0.92702        2.66432
Cl        -0.97736        0.75364        2.79562
P         -1.10159        1.15883       -0.27853
P          2.24682       -0.11469       -0.37783
C          3.24498        1.47960       -0.12054
C          3.59670        1.61909        1.36228
C          4.51416        1.44504       -0.96430
C          3.32625       -1.66664       -0.14586
C          4.15611       -1.93492       -1.40836
C          1.44751       -0.39354       -2.06412
C          1.52340        0.77855       -3.02030
C         -1.12541       -0.16383       -1.52315
C          0.02729       -0.92559       -1.99742
C         -0.48111       -1.99833       -2.85425
C         -1.92570       -1.89888       -2.90778
C         -2.31843       -0.78365       -2.06779
C          2.38956        2.67659       -0.51177
H          2.70403        1.59415        1.98720
H          4.26628        0.83479        1.70447
H          5.04298        2.39739       -0.89988
H          4.29225        1.26186       -2.01458
C          4.26866       -1.54688        1.04787
H          4.65550       -1.03620       -1.76501
H          3.55035       -2.33153       -2.22221
H          2.05106       -1.20098       -2.48880
H          0.87324        1.58413       -2.68713
H          1.17557        0.49392       -4.01548
H          2.53664        1.16431       -3.12651
H          0.13386       -2.68697       -3.43628
H         -2.59698       -2.54235       -3.48042
Pd         0.51044        0.25931        1.17972
H         -3.33860       -0.45039       -1.86551
C          2.35852       -2.81936        0.07878
H          4.92610       -2.68130       -1.20609
H          3.73597       -1.25644        1.95095
H          4.74979       -2.50481        1.25060
H          5.06404       -0.82792        0.86008
H          1.84677       -2.70980        1.03344
H          1.61056       -2.86360       -0.71414
H          2.88667       -3.77475        0.09733
H          4.09913        2.56978        1.54814
H          5.20132        0.67319       -0.62179
H          2.15856        2.68847       -1.57375
H          1.45692        2.67602        0.04940
H          2.90606        3.61144       -0.28743
C         -2.77243        1.24589        0.41866
C         -3.21499        2.21756        1.28162
C         -4.54235        1.91977        1.58963
C         -4.85813        0.77699        0.89756
O         -3.78108        0.35329        0.17422
H         -2.63527        3.04010        1.66632
H         -5.19118        2.47557        2.24666
H         -5.81557        0.27108        0.91410
C         -0.72333        2.77409       -0.98222
C         -0.65062        3.92604       -0.23821
C         -0.34143        4.96288       -1.11960
C         -0.23888        4.39892       -2.36755
O         -0.46728        3.05420       -2.29675
H         -0.78567        4.00370        0.82852
H         -0.20866        6.00274       -0.86937
H         -0.00870        4.92831       -3.28382
Fe        -1.30149       -2.13043       -0.94591
C         -2.99041       -2.81579       -0.00938
C         -2.17823       -2.01291        0.88430
C         -0.87740       -2.63777        0.99188
C         -0.87144       -3.81916        0.14963
C         -2.17800       -3.92627       -0.47419
H         -4.02996       -2.61685       -0.27979
H         -2.49284       -1.10499        1.40264
H         -0.07319       -2.29392        1.64470
H         -0.05040       -4.53147        0.04268
H         -2.50426       -4.72168       -1.14809
