58
-89.86619275
P          1.56548        0.16057        0.79046
C          1.55582        1.93503        0.50077
C          1.62440        2.37110       -0.80274
C          1.60228        3.72509       -1.08062
C          1.51819        4.63499       -0.04550
C          1.46308        4.19432        1.26230
C          1.48439        2.83877        1.53651
H          1.44472        2.48598        2.55386
H          1.69711        1.64175       -1.59428
C          3.19855       -0.52130        0.48721
C          4.28953        0.31755        0.51515
C          5.55555       -0.19157        0.28749
C          5.71876       -1.53910        0.03382
C          4.62127       -2.37682        0.00698
C          3.35670       -1.86486        0.23591
H          2.49089       -2.50616        0.20011
H          4.14491        1.36810        0.71088
C          1.07064       -0.28255        2.50865
C          0.39656       -1.64848        2.55773
C         -1.10663       -1.60738        2.32801
P         -1.62828       -0.76547        0.77136
C         -1.83617        1.01725        0.95389
C         -1.83326        1.64107        2.18053
C         -1.95128        3.01691        2.25228
C         -2.07585        3.76124        1.09611
C         -2.09086        3.13247       -0.13230
C         -1.97381        1.75669       -0.19931
H         -1.98139        1.24735       -1.15051
H         -1.74962        1.05760        3.08168
C         -3.14663       -1.52287        0.18751
C         -4.30617       -0.78488        0.11823
C         -5.47030       -1.37489       -0.33995
C         -5.46290       -2.70064       -0.72663
C         -4.29643       -3.43665       -0.65650
C         -3.13368       -2.84390       -0.19679
H         -2.21164       -3.40184       -0.14791
H         -4.29509        0.25027        0.41879
Pd         0.06910       -0.59670       -0.81412
Cl         1.79213       -0.72252       -2.24678
Cl        -1.51027       -1.12016       -2.32037
H         -1.52128       -2.61782        2.29051
H         -1.61377       -1.10139        3.15081
H          0.86473       -2.30193        1.80898
H          0.59937       -2.13261        3.52598
H          1.99025       -0.25926        3.09914
H          0.41647        0.49088        2.91018
H          1.64973        4.06702       -2.10136
H          1.39945        4.90552        2.06943
H          6.41122        0.46322        0.30574
H          4.74785       -3.42732       -0.19727
H         -1.94306        3.50828        3.21138
H         -2.18681        3.71053       -1.03658
H         -6.37960       -0.79947       -0.39775
H         -4.28919       -4.46946       -0.96386
H          1.49788        5.69135       -0.25845
H          6.70398       -1.93718       -0.14671
H         -2.16093        4.83419        1.15265
H         -6.36845       -3.16093       -1.08695
