72
-108.40260496
Cl         1.71381       -0.82629        2.66422
Cl        -1.01990        0.77379        2.74355
P         -1.15523        1.12969       -0.29441
P          2.28366       -0.10320       -0.34071
C          3.25669        1.50706       -0.08891
C          3.59192        1.65999        1.39599
C          4.53342        1.47808       -0.92123
C          3.37012       -1.64535       -0.08928
C          4.20642       -1.91769       -1.34598
C          1.48390       -0.39181       -2.02639
C          1.54222        0.78356       -2.97949
C         -1.10919       -0.20914       -1.52488
C          0.07178       -0.94943       -1.96769
C         -0.40055       -2.04990       -2.80954
C         -1.84531       -1.97798       -2.89794
C         -2.27888       -0.85088       -2.09487
C          2.39218        2.69293       -0.49837
H          2.69252        1.63155        2.01118
H          4.26353        0.88265        1.75022
H          5.05268        2.43590       -0.86001
H          4.32161        1.28413       -1.97183
C          4.30555       -1.50889        1.10804
H          3.60433       -2.31591       -2.16179
H          4.97503       -2.66379       -1.13745
H          2.10286       -1.18719       -2.45211
H          1.19297        0.49777       -3.97383
H          2.55098        1.18023       -3.08939
H          0.88473        1.58099       -2.64083
H          0.23881       -2.73737       -3.36620
H         -2.49089       -2.64423       -3.47439
Pd         0.49828        0.29403        1.14808
H         -3.30937       -0.53295       -1.92177
C          2.40720       -2.80094        0.14146
H          4.70797       -1.01977       -1.70198
H          5.09207       -0.77999        0.92127
H          3.76477       -1.22226        2.00764
H          4.79814       -2.45974        1.31652
H          1.88895       -2.68387        1.09192
H          1.66419       -2.85696       -0.65541
H          2.94016       -3.75333        0.17294
H          4.08490        2.61584        1.58075
H          5.22455        0.71502       -0.56711
H          2.88966        3.63441       -0.25945
H          2.18861        2.70539       -1.56593
H          1.44510        2.67903        0.03787
C         -2.84369        1.19351        0.35940
C         -3.31948        2.16218        1.20775
C         -4.64981        1.84754        1.48493
C         -4.93350        0.69801        0.78999
O         -3.83381        0.28610        0.09434
H         -2.75997        2.99471        1.60106
H         -5.32184        2.39725        2.12353
H         -5.88435        0.17959        0.78520
C         -0.77050        2.74589       -0.99149
C         -0.70549        3.89338       -0.24014
C         -0.38620        4.93504       -1.11230
C         -0.27003        4.37797       -2.36222
O         -0.49984        3.03296       -2.30159
H         -0.85297        3.96420        0.82552
H         -0.25546        5.97336       -0.85471
H         -0.02901        4.91237       -3.27278
Fe        -1.27530       -2.15508       -0.92796
C         -2.15068       -2.00592        0.91482
C         -0.84444       -2.61901        1.02368
C         -0.82834       -3.81333        0.19990
C         -2.13024       -3.93008       -0.43222
C         -2.94885       -2.81658        0.01610
H         -2.47183       -1.09507        1.42355
H         -0.04358       -2.26234        1.67368
H         -0.00218       -4.52121        0.10315
H         -2.45011       -4.73382       -1.09965
H         -3.98832       -2.62559       -0.26101
