111
-148.55515684
P         -1.68096       -2.80395       -0.19867
P         -0.47613        0.09699       -0.54899
C         -1.52661       -2.08151       -1.85838
C         -1.06790       -0.78891       -2.00196
C         -0.52576       -4.23477       -0.00668
C          0.50901       -3.94109        1.05929
C         -1.83561       -2.82710       -2.97818
H         -2.15642       -3.84955       -2.86446
C         -1.70883       -2.26560       -4.23711
H         -1.95413       -2.84658       -5.11114
C         -1.26251       -0.96517       -4.37571
H         -1.15842       -0.53066       -5.35629
C         -0.93043       -0.22724       -3.25378
H         -0.54673        0.77686       -3.34411
Pd        -1.41895       -1.01431        1.23847
Cl        -2.71327       -2.01885        2.76674
Cl        -1.01016        0.80082        2.50396
C         -1.46252       -5.41296        0.33079
C         -3.30079       -3.65835        0.07344
H          1.18727       -4.78566        1.20218
H          1.10919       -3.06510        0.80413
H          0.02671       -3.73633        2.01737
H         -1.43626       -5.58209        1.41596
H         -1.08484       -6.34331       -0.11942
H         -3.56663       -3.47022        1.12164
C         -2.92960       -5.14085       -0.10936
C         -4.39287       -3.14837       -0.84241
H         -0.05548       -4.37950       -0.98810
H         -3.05605       -5.41240       -1.16631
H         -3.63217       -5.78192        0.44498
H         -5.34388       -3.64788       -0.64412
H         -4.54244       -2.07343       -0.71791
H         -4.14425       -3.32436       -1.88927
C         -0.77342        4.63554       -0.62141
C          0.35670        3.99141       -1.19201
C          0.41028        2.60779       -1.15182
C         -0.63328        1.87369       -0.65112
C         -1.78181        2.48521       -0.22276
C         -1.90093        3.86550       -0.22951
O         -0.74081        6.03027       -0.36445
C          1.52886        4.73540       -1.85370
H          1.28749        2.08463       -1.49461
H         -2.58257        1.86840        0.14958
C         -3.24693        4.47137        0.20174
C          3.77180       -1.24835        0.38081
C          3.16156       -0.23714        1.16664
C          1.86454        0.13656        0.85980
C          1.21773       -0.38551       -0.22784
C          1.83751       -1.28934       -1.04989
C          3.12932       -1.71657       -0.79418
O          5.00491       -1.82162        0.79079
C          3.85941        0.42788        2.36252
H          1.31940        0.81560        1.49236
H          1.28819       -1.67397       -1.89075
C          3.79853       -2.70046       -1.76657
C          1.19923        6.20962       -2.14562
C          2.76482        4.65471       -0.94194
C          1.85674        4.07029       -3.20881
C         -3.40925        4.31774        1.72341
C         -3.37308        5.95573       -0.18289
C         -4.39746        3.72322       -0.50716
C         -0.20308        6.33970        0.91075
H          1.05590        6.77172       -1.22596
H          2.00380        6.68934       -2.70250
H          0.28455        6.28994       -2.73193
H          2.57289        5.11852        0.02371
H          3.04886        3.61835       -0.76187
H          3.61653        5.16162       -1.39472
H          2.20892        3.04776       -3.08358
H          0.97499        4.04708       -3.84861
H          2.63789        4.62060       -3.73268
H         -4.36881        4.71337        2.05507
H         -3.35830        3.26966        2.01678
H         -2.62442        4.84863        2.25847
H         -3.19032        6.09357       -1.24799
H         -4.36835        6.33717        0.04403
H         -2.65576        6.56641        0.36012
H         -5.35894        4.18093       -0.27581
H         -4.26416        3.74940       -1.58829
H         -4.45304        2.68048       -0.19938
H         -0.20631        7.42097        1.04991
H         -0.80178        5.87411        1.69179
H          0.81809        5.96979        0.98610
C          4.86391       -2.93716        1.66179
C          3.53429       -0.35995        3.64062
C          5.38242        0.49780        2.15076
C          3.36345        1.88188        2.53907
C          5.31749       -2.46017       -1.83484
C          3.50995       -4.14087       -1.31734
C          3.24630       -2.51475       -3.19843
H          3.87993       -1.38845        3.56895
H          4.00695        0.09483        4.51072
H          2.45866       -0.38385        3.81441
H          5.86822        1.02617        2.97070
H          5.82189       -0.49468        2.09316
H          5.61684        1.02063        1.22408
H          2.32111        1.91853        2.85184
H          3.94428        2.39888        3.30250
H          3.46146        2.44022        1.60859
H          5.53058       -1.42858       -2.11301
H          5.79257       -2.65194       -0.87588
H          5.78511       -3.11373       -2.57081
H          2.43797       -4.33447       -1.30978
H          3.97658       -4.86020       -1.98981
H          3.88699       -4.32533       -0.31451
H          2.20450       -2.82379       -3.27202
H          3.80898       -3.11739       -3.91104
H          3.31889       -1.47312       -3.51020
H          5.35509       -3.80599        1.22390
H          5.34386       -2.72083        2.61598
H          3.80925       -3.16015        1.82808
