171
-217.84513055
P         -1.59901        0.39812       -0.36760
P          1.62696       -0.31832       -0.25774
C         -0.83607        1.44570       -1.61514
C          0.99134       -1.21577       -1.67843
C          0.02530        0.91258       -2.56778
C          0.68519        1.78882       -3.45084
C          0.43210        3.14809       -3.37186
C         -0.44677        3.65453       -2.43813
C         -1.07270        2.79764       -1.55471
C          1.22133       -2.56736       -1.75927
C          0.70817       -3.29745       -2.81327
C         -0.04638       -2.66511       -3.77865
C         -0.29082       -1.30334       -3.71535
C          0.24884       -0.55623       -2.65072
Cl         1.51388        0.35730        2.90194
Cl        -1.75350       -0.45638        2.72516
C         -1.09687       -0.65093       -4.78365
C          1.65149        1.28536       -4.46552
H         -0.64000        4.71379       -2.39205
H         -1.75048        3.18703       -0.81278
H          1.80796       -3.05418       -0.99735
H          0.89721       -4.35630       -2.88078
H          0.93706        3.81305       -4.05216
H         -0.45531       -3.23154       -4.59831
C         -3.59952       -3.38033       -1.84159
C         -2.70914       -3.46020       -0.77778
C         -2.08332       -2.29073       -0.36892
C         -2.34109       -1.10193       -1.00440
C         -3.22727       -1.03691       -2.05153
C         -3.88008       -2.18351       -2.49002
H         -4.10741       -4.26816       -2.16800
H         -1.40770       -2.30117        0.46918
H         -3.41621       -0.08036       -2.50826
C         -4.69741        2.65033        2.06244
C         -3.36171        3.01625        2.18258
C         -2.43117        2.33845        1.40634
C         -2.82478        1.32410        0.56956
C         -4.14629        0.96567        0.47531
C         -5.11441        1.62948        1.21724
H         -5.43785        3.16273        2.64720
H         -1.38605        2.59076        1.46729
H         -4.41485        0.15162       -0.17376
C          4.28698       -2.94916        2.30916
C          2.93128       -3.24463        2.22897
C          2.14373       -2.44730        1.40881
C          2.68806       -1.38244        0.73477
C          4.02426       -1.09025        0.84752
C          4.85614       -1.87731        1.63287
H          4.92221       -3.56320        2.91914
H          1.09116       -2.64457        1.30275
H          4.41152       -0.23391        0.32563
C          3.89278        3.45356       -1.29273
C          2.82785        3.53310       -0.40456
C          2.14277        2.36199       -0.10796
C          2.50086        1.17864       -0.70347
C          3.54371        1.11901       -1.59509
C          4.26911        2.26409       -1.90411
H          4.45983        4.34247       -1.49878
H          1.32977        2.36026        0.59694
H          3.79144        0.16823       -2.03567
Pd        -0.05085       -0.00141        1.33795
C         -0.93273       -5.12150       -0.18559
C         -2.42107       -4.76773       -0.02755
C         -3.26243       -5.93787       -0.57172
C         -2.75540       -4.57969        1.46477
H         -0.68606       -6.02932        0.36457
H         -0.68670       -5.28476       -1.23415
H         -0.29784       -4.31838        0.18446
H         -3.05021       -6.85455       -0.02154
H         -4.32838       -5.73299       -0.47381
H         -3.04059       -6.12573       -1.62209
H         -2.56700       -5.49491        2.02565
H         -2.15628       -3.78713        1.91066
H         -3.80451       -4.31415        1.59281
C         -6.29770       -2.55908       -3.02269
C         -4.93215       -2.15361       -3.60807
C         -4.53397       -3.14275       -4.71959
C         -5.06701       -0.74810       -4.22585
H         -6.59046       -1.88025       -2.22223
H         -7.07361       -2.53353       -3.78760
H         -6.26769       -3.56719       -2.61081
H         -3.55214       -2.89915       -5.12288
H         -4.49605       -4.16545       -4.34669
H         -5.25109       -3.11569       -5.53986
H         -5.38903       -0.02102       -3.48060
H         -4.12188       -0.41142       -4.64978
H         -5.80666       -0.74713       -5.02638
C         -4.01445        4.59504        4.06935
C         -2.89006        4.13584        3.12092
C         -2.43487        5.33662        2.27434
C         -1.71449        3.62768        3.98002
H         -4.39248        3.75997        4.65894
H         -3.64988        5.35312        4.76246
H         -4.84485        5.03201        3.51533
H         -3.25974        5.71969        1.67382
H         -2.07035        6.14633        2.90621
H         -1.63378        5.05277        1.59401
H         -2.00384        2.73815        4.53908
H         -0.85134        3.37008        3.36828
H         -1.39612        4.38722        4.69368
C         -6.84578        0.12278        0.11782
C         -6.59947        1.24727        1.14378
C         -7.42436        2.47742        0.72271
C         -7.06321        0.75693        2.52724
H         -7.90487       -0.12926        0.06610
H         -6.52978        0.42760       -0.87971
H         -6.30528       -0.78359        0.39040
H         -8.48171        2.22717        0.63758
H         -7.33151        3.28524        1.44753
H         -7.08773        2.85361       -0.24320
H         -6.95351        1.53663        3.28011
H         -8.11120        0.45862        2.50496
H         -6.47357       -0.10192        2.84742
C          0.89119       -4.09262        3.45552
C          2.31483       -4.43927        2.97125
C          3.15350       -4.82029        4.20779
C          2.25552       -5.63899        2.01183
H          0.20768       -3.94585        2.62154
H          0.48286       -4.89465        4.07011
H          0.89772       -3.18043        4.05188
H          2.65977       -5.60255        4.78424
H          4.13449       -5.19943        3.92395
H          3.29247       -3.95951        4.86169
H          1.67705       -5.39544        1.12172
H          3.25635       -5.92440        1.68829
H          1.79445       -6.50238        2.49114
C          7.16861       -2.81108        1.34698
C          6.35451       -1.57949        1.78479
C          6.65654       -1.25142        3.25809
C          6.78505       -0.37985        0.91739
H          8.23859       -2.61733        1.42092
H          6.94438       -3.67731        1.96816
H          6.94369       -3.07281        0.31318
H          7.71155       -1.01642        3.39778
H          6.07196       -0.39265        3.58759
H          6.41202       -2.09087        3.90797
H          6.58768       -0.57015       -0.13740
H          6.25676        0.52718        1.21078
H          7.85253       -0.18764        1.02435
C          2.27295        5.94586       -0.83576
C          2.47012        4.87294        0.25190
C          3.61213        5.29092        1.19428
C          1.16764        4.76861        1.06845
H          1.97224        6.89632       -0.39529
H          3.18957        6.11753       -1.39834
H          1.50005        5.64149       -1.54043
H          3.38551        6.23584        1.68779
H          3.77028        4.53609        1.96439
H          4.54731        5.41261        0.64859
H          0.89720        5.73559        1.49227
H          0.34299        4.43730        0.43828
H          1.27550        4.06703        1.89524
C          5.34993        3.30502       -3.92735
C          5.49473        2.23427       -2.82872
C          5.65927        0.86027       -3.50736
C          6.75519        2.52389       -1.99375
H          4.44548        3.14360       -4.51196
H          5.29964        4.30721       -3.50400
H          6.19922        3.27799       -4.60989
H          6.51303        0.86335       -4.18485
H          5.82905        0.07518       -2.77089
H          4.77520        0.60188       -4.08960
H          6.87300        1.78292       -1.20380
H          7.65004        2.50014       -2.61540
H          6.69875        3.50546       -1.52421
H         -1.90447       -1.30289       -5.11649
H          1.21975        1.31967       -5.46669
H         -0.47827       -0.41957       -5.65167
H         -1.54611        0.27850       -4.43097
H          1.94965        0.25656       -4.25950
H          2.55602        1.89339       -4.47094
