58
-89.86529304
P          1.80124        0.06929        0.58423
C          1.94007        1.86076        0.55630
C          0.82549        2.62129        0.28984
C          0.90925        4.00089        0.30482
C          2.11243        4.61201        0.59586
C          3.22617        3.84650        0.88076
C          3.13669        2.46584        0.86720
H          3.99376        1.85661        1.10667
H         -0.11442        2.13554        0.09437
C          3.24018       -0.73391       -0.13796
C          3.46068       -2.06992        0.11194
C          4.54535       -2.70861       -0.46252
C          5.39766       -2.00700       -1.29173
C          5.16517       -0.67119       -1.55187
C          4.08083       -0.03568       -0.97468
H          3.87331        0.99924       -1.19297
H          2.77820       -2.61355        0.74551
C          1.62224       -0.43321        2.33824
C          0.41654        0.21275        3.00591
C         -0.89160       -0.50764        2.72382
P         -1.53747       -0.34710        1.00592
C         -2.23668        1.27843        0.68573
C         -2.33144        2.23716        1.66946
C         -2.83913        3.48655        1.36216
C         -3.24953        3.76740        0.07373
C         -3.15725        2.80186       -0.90876
C         -2.64890        1.55456       -0.59812
H         -2.55951        0.78779       -1.35153
H         -2.00362        2.01327        2.67094
C         -2.79057       -1.62202        0.84025
C         -4.12030       -1.27966        0.75136
C         -5.07712       -2.26946        0.61732
C         -4.69318       -3.59532        0.57274
C         -3.35717       -3.93362        0.66192
C         -2.40231       -2.94135        0.79674
H         -1.35400       -3.18867        0.85810
H         -4.40372       -0.24003        0.78215
Pd        -0.00884       -0.51682       -0.73931
Cl         1.37437       -0.44707       -2.50633
Cl        -1.71115       -1.37451       -1.93818
H         -0.78079       -1.57644        2.91716
H         -1.69190       -0.15905        3.38085
H          0.57922        0.24711        4.09470
H          0.34101        1.26247        2.69240
H          1.56359       -1.52133        2.39054
H          2.55566       -0.13816        2.82417
H          0.03442        4.59460        0.09660
H          4.16331        4.32303        1.11733
H          4.72048       -3.75383       -0.26704
H          5.82191       -0.12580       -2.20951
H         -2.91090        4.24134        2.12798
H         -3.47647        3.01894       -1.91481
H         -6.11929       -2.00525        0.54432
H         -3.05719       -4.96786        0.62209
H          2.18083        5.68760        0.60750
H          6.24078       -2.50457       -1.74260
H         -3.64311        4.74193       -0.16523
H         -5.43744       -4.36747        0.46510
