111
-148.55823399
P         -2.36795       -2.47926       -0.07673
P         -0.08501       -0.30088       -0.46516
C         -1.65856       -2.19962       -1.71687
C         -0.71145       -1.21432       -1.88937
C         -2.30314       -4.25957        0.41225
C         -1.30200       -4.46039        1.52934
C         -2.08964       -2.94084       -2.79809
H         -2.82485       -3.71569       -2.65201
C         -1.57858       -2.68084       -4.05807
H         -1.91512       -3.25770       -4.90398
C         -0.64453       -1.67774       -4.23325
H         -0.25100       -1.47074       -5.21481
C         -0.21046       -0.94141       -3.14540
H          0.51900       -0.15542       -3.26543
Pd        -1.39431       -0.94629        1.33954
Cl        -3.00003       -1.33341        2.85899
Cl        -0.27192        0.45293        2.69295
C         -3.76112       -4.57240        0.79999
C         -4.20006       -2.20026       -0.05159
H         -1.26251       -5.50484        1.84798
H         -0.29721       -4.16034        1.22111
H         -1.57065       -3.85810        2.39981
H         -3.86802       -4.45786        1.88748
H         -3.99598       -5.62698        0.59038
H         -4.40418       -1.62390        0.86029
C         -4.76488       -3.62614        0.08259
C         -4.67733       -1.44389       -1.27360
H         -2.01099       -4.81964       -0.48565
H         -4.98464       -4.01647       -0.92056
H         -5.73122       -3.60652        0.60908
H         -4.16116       -0.48683       -1.37408
H         -4.48609       -2.01288       -2.18441
H         -5.75114       -1.24824       -1.22835
C         -0.96238        4.15618       -0.73038
C          0.33801        3.68076       -1.04001
C          0.57990        2.32067       -0.94025
C         -0.42790        1.44589       -0.62987
C         -1.71174        1.88750       -0.44413
C         -2.01971        3.23595       -0.51351
O         -1.19782        5.55128       -0.60444
C          1.48756        4.61572       -1.44842
H          1.56899        1.92437       -1.09077
H         -2.47340        1.16066       -0.22054
C         -3.47473        3.67987       -0.29701
C          4.37390       -1.03860        0.20251
C          3.63997       -0.22464        1.10135
C          2.28271       -0.06727        0.88185
C          1.66679       -0.60996       -0.21472
C          2.39369       -1.31768       -1.13715
C          3.75439       -1.52070       -0.97833
O          5.71562       -1.39772        0.49994
C          4.28105        0.46337        2.31678
H          1.67249        0.46596        1.58810
H          1.87932       -1.72115       -1.99010
C          4.53225       -2.27175       -2.07094
C          0.96086        5.83252       -2.23077
C          2.24064        5.07816       -0.19202
C          2.48400        3.88195       -2.37510
C         -4.45827        2.58138       -0.76120
C         -3.70627        3.93726        1.20001
C         -3.79669        4.94493       -1.11260
C         -0.97943        6.06094        0.70522
H          0.30936        6.44837       -1.61595
H          1.78096        6.46228       -2.57474
H          0.39138        5.51100       -3.10215
H          1.58472        5.61827        0.48608
H          2.64516        4.22392        0.34953
H          3.06967        5.73536       -0.45328
H          1.96607        3.42942       -3.22034
H          3.22689        4.57469       -2.76988
H          3.02667        3.09993       -1.84588
H         -5.48499        2.94580       -0.73644
H         -4.23852        2.26942       -1.78191
H         -4.41625        1.70576       -0.11509
H         -4.73577        4.23946        1.39008
H         -3.50552        3.03682        1.78029
H         -3.05160        4.72143        1.57181
H         -4.84456        5.22414       -1.00538
H         -3.19655        5.79088       -0.78717
H         -3.59581        4.78043       -2.17068
H         -1.89917        6.50823        1.08173
H         -0.66179        5.26174        1.37621
H         -0.21402        6.83611        0.67332
C          5.84153       -2.58944        1.26578
C          5.74536        0.84337        2.03209
C          3.53513        1.77462        2.65535
C          4.20020       -0.47280        3.53188
C          5.97653       -1.74969       -2.17981
C          4.53460       -3.77454       -1.75277
C          3.87349       -2.06307       -3.45395
H          6.35830       -0.03759        1.85953
H          5.81221        1.47508        1.14691
H          6.17922        1.38736        2.87072
H          4.06186        2.33081        3.43037
H          3.46042        2.41398        1.77662
H          2.52964        1.58379        3.02720
H          3.16307       -0.71809        3.75958
H          4.72773       -1.40553        3.34743
H          4.63823       -0.00648        4.41394
H          6.53574       -1.93589       -1.26629
H          6.50883       -2.23655       -2.99657
H          5.98344       -0.67567       -2.36274
H          5.01243       -3.97465       -0.79689
H          3.51612       -4.15880       -1.70109
H          5.06867       -4.33513       -2.51957
H          2.90261       -2.55244       -3.51666
H          4.49400       -2.48343       -4.24508
H          3.73836       -1.00216       -3.66317
H          6.33981       -2.36783        2.20935
H          4.85918       -3.01938        1.46531
H          6.45073       -3.31064        0.72117
