115
-277.94207162
P         -1.79070       -0.33142       -0.09787
P          1.86868        0.68589       -0.14171
C         -1.88265       -2.10548        0.19120
C         -0.75392       -2.82830        0.51271
H          0.15364       -2.32299        0.79800
C         -0.77520       -4.20404        0.40816
H          0.12274       -4.78589        0.54935
C         -1.92260       -4.85295       -0.01742
C         -3.08499       -4.12312       -0.21088
H         -3.96912       -4.63082       -0.56141
C         -3.06742       -2.74784       -0.09915
H         -3.94642       -2.17101       -0.34239
C         -3.30457        0.43640        0.52341
C         -4.02583       -0.13746        1.54477
H         -3.67616       -1.04988        2.00102
C         -5.18414        0.46230        1.99270
H         -5.76298        0.01901        2.78730
C         -5.62701        1.64049        1.42184
C         -4.90048        2.20772        0.39417
H         -5.26884        3.11574       -0.05655
C         -3.73981        1.60868       -0.05127
H         -3.18180        2.04734       -0.86138
C         -1.54560        0.12035       -1.84933
C         -1.02194        1.39530       -1.97216
H         -0.74558        1.93559       -1.08193
C         -0.69342        1.92833       -3.21810
C         -1.11121        1.23277       -4.34670
H         -0.90513        1.63979       -5.32251
C         -1.62875       -0.04194       -4.23278
H         -1.82170       -0.61424       -5.12438
C         -1.74225       -0.66882       -2.99196
C          1.63954        0.14124       -1.86804
C          1.12199       -1.13874       -1.91297
H          0.85134       -1.62454       -0.99152
C          0.79404       -1.74776       -3.12324
C          1.21030       -1.12390       -4.29326
H          1.00493       -1.59123       -5.24178
C          1.73017        0.15458       -4.25740
H          1.92538        0.67058       -5.18223
C          1.84297        0.85627       -3.05720
C         -1.72065       -2.18313       -2.98142
H         -2.39274       -2.55781       -3.76165
H         -2.16295       -2.54233       -2.05621
C         -0.28312       -2.79744       -3.16406
H         -0.07591       -3.55450       -2.40000
H         -0.21707       -3.34217       -4.11251
C          0.38681        2.97084       -3.33555
H          0.19870        3.77649       -2.61810
H          0.30931        3.45699       -4.31456
C          1.82551        2.36713       -3.13904
H          2.48706        2.69567       -3.94888
H          2.28616        2.78478       -2.24741
C          2.31736        2.42393       -0.06572
C          1.33680        3.37796        0.09760
C          3.60407        2.78733       -0.40518
C          1.61364        4.69348       -0.20688
C          3.87667        4.10536       -0.71995
C          2.86357        5.05114       -0.68836
C          3.23721       -0.24412        0.58261
C          4.00970       -1.02469       -0.24641
C          3.52918       -0.16979        1.92406
C          5.06976       -1.73881        0.27105
H          3.78248       -1.07715       -1.29871
C          4.58758       -0.88411        2.44408
H          2.92576        0.44879        2.56757
C          5.36610       -1.67078        1.61892
H          5.67673       -2.36557       -0.36273
H          4.82222       -0.84891        3.49638
Pd        -0.01225        0.42712        1.24166
Cl        -1.48970       -0.11332        2.85073
Cl         1.26327        1.61597        2.66849
H          4.84041        4.39421       -1.10967
H          4.36149        2.02857       -0.52512
H          0.83094        5.43459       -0.19200
H          0.34259        3.09107        0.39790
C         -3.12142       -7.03074       -0.51680
C         -1.78347       -6.23964       -0.59334
C         -1.28404       -6.04136       -2.05947
F         -3.56350       -6.96239        0.74767
F         -4.02050       -6.47564       -1.34121
F         -2.89629       -8.30871       -0.85978
F         -0.85525       -6.92849        0.07498
F         -0.04819       -5.53023       -1.99367
F         -1.27477       -7.21610       -2.70378
F         -2.08239       -5.15964       -2.67782
C         -8.09081        1.51270        1.12615
C         -6.93305        2.26806        1.83912
C         -7.07892        2.25170        3.38947
F         -7.91944        1.67291       -0.19476
F         -8.02328        0.20946        1.43601
F         -9.26731        2.03159        1.50833
F         -6.97419        3.54329        1.44314
F         -5.96600        2.79355        3.90659
F         -8.15181        2.97829        3.73896
F         -7.20871        0.98761        3.81581
C          6.00120       -3.97169        2.31428
C          6.48209       -2.49636        2.20611
C          7.77075       -2.35210        1.34340
F          4.94316       -3.98860        3.13903
F          5.63390       -4.40602        1.09974
F          6.99024       -4.72989        2.81079
F          6.76968       -2.06900        3.43867
F          8.01171       -1.04106        1.19297
F          8.79555       -2.94100        1.97881
F          7.57427       -2.91702        0.14398
C          2.37773        5.97271       -2.90522
C          3.01281        6.30274       -1.51648
C          2.34886        7.52770       -0.82377
F          2.49907        7.02818       -3.72123
F          3.03105        4.91400       -3.40459
F          1.09063        5.64512       -2.73314
F          4.30412        6.58345       -1.70697
F          2.60840        8.63100       -1.54243
F          1.02643        7.33280       -0.72696
F          2.88208        7.63899        0.40215
