87
-129.18666315
P         -1.68902       -0.36917       -0.13303
P          1.58198        0.34336       -0.17355
C         -1.43299        0.96344       -1.32853
C          1.33486       -0.65721       -1.64546
C         -0.47486        0.91230       -2.33902
C         -0.26784        2.05416       -3.13714
C         -1.03878        3.18324       -2.92176
C         -1.99212        3.21209       -1.92801
C         -2.17874        2.10118       -1.12947
C          2.12514       -1.76274       -1.84384
C          1.94606       -2.55112       -2.96318
C          0.96986       -2.22363       -3.88025
C          0.16014       -1.11474       -3.69812
C          0.34818       -0.30679       -2.55892
Cl         1.30715        1.06814        2.95163
Cl        -1.38715       -0.80681        3.04557
H         -2.58014        4.10055       -1.76574
H         -2.91027        2.12463       -0.33881
H          2.88821       -2.00885       -1.12440
H          2.56376       -3.42084       -3.11622
H         -0.87741        4.05126       -3.53831
H          0.82289       -2.83878       -4.75175
C         -0.99502       -4.57914       -1.69463
C         -0.41082       -4.18765       -0.49785
C         -0.65606       -2.90200       -0.03221
C         -1.44859       -2.03660       -0.75073
C         -2.04408       -2.44032       -1.92227
C         -1.81601       -3.71857       -2.39714
H         -0.80130       -5.56847       -2.07269
C          0.49789       -5.10058        0.24701
H         -0.24054       -2.58468        0.90855
H         -2.66539       -1.74818       -2.46817
H         -2.26777       -4.03752       -3.32207
C         -5.77462        0.06615        1.83123
C         -5.56828       -0.90950        0.87615
C         -4.32518       -1.04611        0.28735
C         -3.29970       -0.20613        0.65453
C         -3.50398        0.76699        1.60560
C         -4.74375        0.91216        2.21601
H         -6.74258        0.17603        2.28979
H         -6.37469       -1.56471        0.59001
H         -4.14921       -1.80644       -0.45581
H         -2.68953        1.41128        1.89349
C         -4.95946        1.97337        3.23686
C          4.99637       -1.36836        2.31214
C          5.10780       -0.09989        1.77760
C          4.07891        0.42042        1.01556
C          2.94861       -0.33008        0.79291
C          2.83408       -1.59235        1.32837
C          3.86045       -2.13493        2.09089
H          5.79325       -1.77197        2.91323
H          5.99305        0.48720        1.95951
H          4.14736        1.41365        0.60327
H          1.93921       -2.16564        1.15588
C          3.71506       -3.49100        2.68640
C          2.30145        4.68155       -1.30370
C          3.06227        3.68409       -1.88165
C          2.85121        2.36386       -1.52925
C          1.88997        2.05738       -0.59505
C          1.13730        3.04843       -0.00953
C          1.32287        4.37819       -0.36698
H          2.46233        5.71003       -1.57860
H          3.81514        3.93271       -2.61155
H          3.42219        1.56950       -1.98407
H          0.39348        2.79029        0.72527
C          0.50743        5.44929        0.26686
Pd        -0.05466        0.07444        1.47263
C          0.76851        2.07934       -4.20690
C         -0.89059       -0.80541       -4.70717
H          1.32277        3.01877       -4.18807
H          1.49070        1.27163       -4.08376
H          0.31291        1.97863       -5.19266
H         -1.45369       -1.70226       -4.96932
H         -1.60196       -0.06916       -4.33145
H         -0.44675       -0.40964       -5.62148
H          0.48468       -4.88228        1.31588
H          0.20244       -6.14266        0.11756
H          1.52496       -4.99423       -0.10534
H         -5.16155        2.93393        2.76087
H         -5.80367        1.73354        3.88476
H         -4.07882        2.08940        3.87039
H          4.68056       -3.89619        2.99232
H          3.06934       -3.45918        3.56509
H          3.27500       -4.18667        1.97042
H         -0.49637        5.09056        0.49976
H          0.96797        5.78793        1.19591
H          0.40554        6.31116       -0.39414
