105
-153.07287246
Cl        -0.79318        2.09675       -2.85737
Pd         0.08374        1.51169       -0.87123
P          1.35689        0.71934        0.91023
N          0.69508       -0.55759        1.91851
C          0.05465       -1.76383        1.67311
C         -0.10592       -2.32835        0.38366
C         -0.86844       -3.50510        0.23178
C         -1.02611       -4.08986       -1.15261
C         -1.59755       -5.51614       -1.18468
C         -2.75619       -5.66811       -0.19494
C         -2.28886       -5.36418        1.23637
C         -1.44572       -4.11899        1.34529
C         -1.22980       -3.57741        2.60536
C         -0.49622       -2.43103        2.76683
H         -0.36586       -2.00976        3.74851
H         -1.66450       -4.06268        3.46285
H         -3.15336       -5.26605        1.90554
H         -3.56125       -4.97568       -0.47096
H         -1.91702       -5.78589       -2.20121
H         -1.67036       -3.42160       -1.73593
C          0.67552       -1.85107       -0.78291
C          0.01674       -1.24220       -1.88542
C          0.74474       -1.02682       -3.05891
C          2.05691       -1.41073       -3.15798
C          2.70207       -2.04761       -2.10511
C          4.10973       -2.54247       -2.30981
C          4.44284       -3.74976       -1.42253
C          4.10944       -3.44205        0.04017
C          2.62843       -3.06239        0.22105
C          2.01417       -2.26807       -0.91064
H          2.03512       -3.97490        0.35485
H          4.74314       -2.61632        0.38224
H          5.49713       -4.04097       -1.53317
H          4.80791       -1.72460       -2.10159
H          2.59858       -1.23587       -4.07206
H          0.26044       -0.53836       -3.88610
N         -1.32408       -0.84003       -1.83421
P         -1.85393        0.18827       -0.50024
C         -2.79051       -0.71434        0.73077
C         -3.59186       -1.74655        0.30624
C         -4.37557       -2.42824        1.22002
C         -4.36807       -2.06870        2.56095
C         -3.56059       -1.01402        2.96613
C         -2.78043       -0.33131        2.05068
H         -2.15516        0.48767        2.36372
H         -3.54153       -0.73484        4.00574
C         -5.17279       -2.83114        3.55474
H         -4.99444       -3.24759        0.89681
H         -3.59472       -2.01662       -0.73797
C         -2.98127        1.46219       -1.08001
C         -2.97642        2.70072       -0.48276
C         -3.84698        3.67931       -0.92633
C         -4.73611        3.41847       -1.96017
C         -4.72759        2.15992       -2.54649
C         -3.85506        1.18250       -2.10280
H         -3.85476        0.20154       -2.55012
H         -5.40612        1.95100       -3.35584
C         -5.65063        4.48226       -2.45961
H         -3.83687        4.65608       -0.47364
H         -2.28742        2.90185        0.32206
H         -1.65897       -0.37340       -2.66734
H          0.90425       -0.32233        2.88122
C          1.31148        2.20088        1.92755
C          0.08450        2.66050        2.34259
C          0.00132        3.81037        3.10663
C          1.14869        4.51088        3.45321
C          2.37947        4.02676        3.03020
C          2.45917        2.87738        2.26583
H          3.41293        2.51081        1.92404
H          3.27583        4.55850        3.30022
C          1.06290        5.73716        4.29375
H         -0.95774        4.17213        3.43602
H         -0.80413        2.12159        2.05833
C          3.08110        0.39275        0.54385
C          3.63530        0.74056       -0.66478
C          4.98338        0.53401       -0.88939
C          5.78951       -0.01023        0.10095
C          5.21457       -0.34695        1.31889
C          3.86366       -0.14374        1.53893
H          3.41452       -0.39687        2.48641
H          5.82967       -0.77445        2.09223
C          7.23291       -0.27086       -0.15462
H          5.41892        0.79958       -1.83754
H          3.01563        1.18902       -1.42332
Cl         1.67507        3.09976       -0.99914
H         -1.71162       -6.21164        1.62492
H         -0.80581       -6.23071       -0.92670
H         -3.19634       -6.67333       -0.25936
H         -0.05230       -4.06801       -1.65780
H          4.37236       -4.29339        0.68359
H          2.49797       -2.49612        1.15114
H          4.25654       -2.79262       -3.36827
H          3.85845       -4.61729       -1.75419
H         -4.58237       -3.63650        3.99392
H         -5.51446       -2.18408        4.36381
H         -6.05479       -3.27497        3.09095
H         -6.56592        4.05424       -2.87080
H         -5.93576        5.16476       -1.65777
H         -5.17017        5.06735       -3.24489
H          1.89149        6.41570        4.08631
H          0.13604        6.28012        4.10357
H          1.09304        5.48305        5.35416
H          7.81544       -0.19578        0.76463
H          7.37859       -1.27119       -0.56490
H          7.64283        0.44766       -0.86574
