75
-122.81791809
P          1.76810       -0.58626       -0.04178
C          1.67328       -1.58533       -1.53473
C          1.78990       -2.95187       -1.42042
C          1.80295       -3.73890       -2.55808
C          1.70376       -3.14999       -3.80305
C          1.58498       -1.77881       -3.91301
C          1.56879       -0.99607       -2.77369
H          1.46086        0.07341       -2.84321
H          1.49759       -1.31898       -4.88361
H          1.71177       -3.76211       -4.69007
H          1.89275       -4.80922       -2.47163
H          1.88388       -3.39552       -0.44173
C          3.06347       -1.32344        0.96999
C          4.34058       -1.37130        0.45878
C          5.35713       -1.95000        1.19714
C          5.08438       -2.48565        2.43996
C          3.79877       -2.44969        2.94198
C          2.78479       -1.87103        2.20122
H          1.77727       -1.84309        2.58280
H          3.58469       -2.87068        3.91062
H          5.87532       -2.93559        3.01758
H          6.35863       -1.98459        0.80085
H          4.53433       -0.96584       -0.52213
C          2.19308        1.11426       -0.46310
C          3.35340        1.75029       -0.08782
C          3.53811        3.09956       -0.35760
C          2.50971        3.80696       -0.97996
C          1.33433        3.18750       -1.34224
C          1.17876        1.81373       -1.09797
O         -0.00778        1.14551       -1.43906
C         -1.19153        1.81500       -1.09186
C         -1.34716        3.18897       -1.33504
C         -2.51960        3.80972       -0.96532
C         -3.54467        3.10370       -0.33580
C         -3.35953        1.75440       -0.06648
C         -2.20241        1.11737       -0.44973
P         -1.77777       -0.58260       -0.02958
C         -3.08212       -1.32204        0.96729
C         -4.35080       -1.37987        0.43654
C         -5.37592       -1.95801        1.16347
C         -5.11988       -2.48278        2.41450
C         -3.84247       -2.43637        2.93635
C         -2.81991       -1.85823        2.20707
H         -1.81875       -1.82109        2.60434
H         -3.64151       -2.84867        3.91151
H         -5.91755       -2.93214        2.98323
H         -6.37100       -2.00024        0.75204
H         -4.53134       -0.98092       -0.54958
C         -1.65818       -1.58509       -1.51524
C         -1.71813       -1.00646       -2.76217
C         -1.71175       -1.80393       -3.89154
C         -1.64676       -3.17722       -3.76279
C         -1.58514       -3.75377       -2.50954
C         -1.59354       -2.95303       -1.38139
H         -1.56216       -3.38799       -0.39467
H         -1.53109       -4.82527       -2.40908
H         -1.63753       -3.80004       -4.64232
H         -1.75315       -1.35319       -4.86942
H         -1.76238        0.06683       -2.84625
Pd        -0.00368       -0.00289        1.43685
Cl        -1.58554        0.97380        2.70703
Cl         1.61911        1.00224        2.63631
H         -4.11280        1.20968        0.47434
C         -4.78320        3.79763        0.10638
H         -5.00266        4.65614       -0.52962
H         -4.67984        4.15482        1.13173
H         -5.64328        3.12782        0.06814
H         -2.63431        4.86302       -1.15079
S         -0.00799        4.07624       -2.09156
H          2.62444        4.86016       -1.16601
C          4.78011        3.79220        0.07683
H          4.10943        1.20544        0.44883
H          5.00000        4.64651       -0.56466
H          4.68105        4.15533        1.10052
H          5.63813        3.11971        0.03957
