171
-217.84371991
P         -1.60795        0.31584       -0.39007
P          1.66298       -0.31041       -0.28913
C         -0.88095        1.37207       -1.64247
C          1.04042       -1.25141       -1.68405
C         -0.01472        0.83537       -2.58752
C          0.60432        1.70582       -3.50454
C          0.30530        3.05811       -3.46536
C         -0.57857        3.56478       -2.53631
C         -1.16549        2.71559       -1.61955
C          1.32204       -2.59377       -1.75550
C          0.79785       -3.35934       -2.77799
C         -0.02118       -2.77146       -3.71871
C         -0.31138       -1.41814       -3.66874
C          0.24502       -0.63130       -2.64161
Cl         1.46984        0.38865        2.93355
Cl        -1.60927       -0.47393        2.84988
C         -1.21523       -0.83006       -4.69546
C          1.55319        1.19045       -4.52822
H         -0.80850        4.61765       -2.52213
H         -1.85294        3.10252       -0.88515
H          1.95735       -3.04580       -1.01149
H          1.02254       -4.41189       -2.83468
H          0.77371        3.71771       -4.17626
H         -0.44893       -3.36711       -4.50754
C         -3.72369       -3.30063       -2.08232
C         -2.72767       -3.49530       -1.13388
C         -2.08144       -2.37293       -0.63053
C         -2.41250       -1.12190       -1.08742
C         -3.38733       -0.94631       -2.03879
C         -4.07112       -2.04142       -2.55436
H         -4.25889       -4.15611       -2.45106
H         -1.32036       -2.46163        0.12525
H         -3.61633        0.05491       -2.36277
C         -4.52948        2.55521        2.26528
C         -3.19478        2.94272        2.26282
C         -2.32638        2.27216        1.41207
C         -2.77395        1.23933        0.62617
C         -4.09264        0.85923        0.65421
C         -5.00295        1.52008        1.46875
H         -5.22256        3.06011        2.91139
H         -1.28451        2.54262        1.37774
H         -4.40394        0.03014        0.04462
C          4.23581       -2.69892        2.58893
C          2.95177       -3.14962        2.30886
C          2.19956       -2.43368        1.38713
C          2.71075       -1.30926        0.78664
C          3.97632       -0.86972        1.08839
C          4.76862       -1.56125        1.99635
H          4.83699       -3.23255        3.30069
H          1.19254       -2.73850        1.15731
H          4.33075        0.03601        0.62952
C          3.92838        3.40824       -1.50015
C          2.83191        3.53642       -0.65614
C          2.14445        2.38214       -0.30255
C          2.53765        1.16430       -0.79729
C          3.61875        1.05371       -1.63686
C          4.34426        2.18074       -2.00325
H          4.47811        4.29399       -1.75666
H          1.30089        2.41982        0.36490
H          3.90781        0.07788       -1.99074
Pd        -0.03161       -0.05869        1.30452
C         -3.61588       -5.47444        0.11550
C         -2.40253       -4.91322       -0.64647
C         -1.18379       -4.91716        0.29434
C         -2.08339       -5.81428       -1.85447
H         -4.49464       -5.52556       -0.52656
H         -3.41311       -6.47853        0.48763
H         -3.86100       -4.84078        0.96771
H         -1.38278       -4.33869        1.19589
H         -0.93502       -5.93236        0.60311
H         -0.31153       -4.49551       -0.20390
H         -1.25480       -5.40499       -2.43114
H         -1.80556       -6.81692       -1.52992
H         -2.94021       -5.90753       -2.52034
C         -6.53722       -2.31123       -2.87626
C         -5.22272       -1.89192       -3.55907
C         -4.97170       -2.79227       -4.78409
C         -5.36335       -0.43647       -4.04609
H         -6.49725       -3.35021       -2.55063
H         -6.73008       -1.69443       -1.99926
H         -7.38225       -2.20514       -3.55631
H         -4.03363       -2.53322       -5.27270
H         -4.92352       -3.84356       -4.50366
H         -5.77152       -2.68271       -5.51632
H         -5.60338        0.23330       -3.22058
H         -4.44316       -0.08973       -4.51581
H         -6.16358       -0.35011       -4.78099
C         -3.70255        4.52827        4.18827
C         -2.65678        4.07165        3.15276
C         -2.28256        5.27049        2.26507
C         -1.41052        3.57622        3.91437
H         -4.58070        4.95252        3.70214
H         -4.02149        3.69474        4.81387
H         -3.28899        5.29559        4.84262
H         -3.15791        5.64632        1.73565
H         -1.86965        6.08521        2.85961
H         -1.54143        4.98690        1.51986
H         -1.64609        2.68734        4.49915
H         -0.59901        3.32106        3.23473
H         -1.03993        4.34144        4.59600
C         -6.80997        0.00480        0.51384
C         -6.48257        1.11567        1.53146
C         -7.36329        2.33808        1.21202
C         -6.80289        0.59711        2.94470
H         -7.86741       -0.25644        0.55207
H         -6.58571        0.32939       -0.50208
H         -6.24048       -0.90081        0.72211
H         -7.21755        3.13515        1.93994
H         -7.12459        2.73660        0.22610
H         -8.41968        2.07008        1.22080
H         -7.84430        0.28468        3.01976
H         -6.17407       -0.25819        3.19133
H         -6.62911        1.36665        3.69602
C          0.98709       -4.00100        3.61761
C          2.34055       -4.38375        2.98644
C          3.25177       -4.93505        4.10012
C          2.13472       -5.48315        1.93039
H          0.27513       -3.66417        2.86617
H          0.54352       -4.85070        4.13606
H          1.11447       -3.19346        4.33821
H          2.78685       -5.78944        4.59191
H          4.20789       -5.26928        3.69802
H          3.44110       -4.17764        4.86060
H          1.49541       -5.13403        1.12166
H          3.08782       -5.78063        1.49350
H          1.67225       -6.36704        2.36929
C          7.19674       -2.19018        2.10050
C          6.17128       -1.07925        2.39257
C          6.18178       -0.74037        3.89434
C          6.58158        0.17986        1.60521
H          8.20611       -1.86454        2.35145
H          6.98450       -3.08904        2.67802
H          7.18169       -2.45913        1.04442
H          5.94725       -1.61557        4.49908
H          7.15915       -0.37156        4.20497
H          5.44261        0.02838        4.11899
H          7.58241        0.50567        1.88820
H          6.58920       -0.01976        0.53470
H          5.89865        1.00673        1.79954
C          3.56929        5.43314        0.80153
C          2.44220        4.91659       -0.11014
C          1.13882        4.85145        0.70831
C          2.23034        5.89443       -1.28122
H          3.31836        6.40826        1.21862
H          3.73968        4.74478        1.62919
H          4.50504        5.53390        0.25266
H          1.25427        4.21021        1.58177
H          0.85466        5.84203        1.06305
H          0.31977        4.46683        0.10173
H          1.91049        6.87160       -0.91979
H          3.14629        6.03653       -1.85313
H          1.46642        5.52010       -1.96150
C          6.22619        3.39470       -3.21797
C          5.59393        2.02938       -2.88470
C          5.22085        1.33535       -4.20716
C          6.63518        1.17913       -2.13534
H          6.55391        3.90769       -2.31400
H          7.09890        3.27007       -3.85897
H          5.51886        4.03586       -3.74384
H          6.10143        1.19435       -4.83375
H          4.77802        0.35570       -4.03243
H          4.50655        1.93600       -4.76818
H          7.54171        1.05887       -2.72825
H          6.90947        1.65247       -1.19290
H          6.24639        0.18558       -1.91470
H         -2.13084       -1.41521       -4.78019
H          2.11964        0.33979       -4.14657
H         -0.73593       -0.81419       -5.67531
H         -1.50221        0.19117       -4.44187
H          2.26596        1.96177       -4.82130
H          1.02351        0.86905       -5.42571
