58
-89.86826525
P          1.62506        0.31303        0.92301
C          3.00664        1.42220        0.64554
C          2.82988        2.77623        0.81457
C          3.88734        3.63958        0.58872
C          5.11282        3.13881        0.19520
C          5.28419        1.77894        0.02592
C          4.22508        0.91830        0.25163
H          4.34048       -0.14504        0.11650
H          1.86400        3.15283        1.11288
C          1.99815       -1.34580        0.33749
C          2.03437       -1.55109       -1.02321
C          2.29127       -2.81250       -1.52672
C          2.51637       -3.86257       -0.65932
C          2.49587       -3.65049        0.70518
C          2.24055       -2.38632        1.20503
H          2.24422       -2.20905        2.26780
H          1.86172       -0.71526       -1.68304
C          1.17124        0.36779        2.70029
C          0.00970       -0.53682        3.07785
C         -1.35160       -0.03336        2.62455
P         -1.68189       -0.19239        0.82237
C         -3.34549        0.40562        0.51369
C         -3.64296        1.72721        0.75464
C         -4.92015        2.19909        0.50823
C         -5.88840        1.34283        0.02174
C         -5.58382        0.01773       -0.22017
C         -4.30606       -0.45095        0.02655
H         -4.05078       -1.48083       -0.16392
H         -2.87306        2.38619        1.12428
C         -1.48012       -1.87328        0.21344
C         -1.41048       -2.95266        1.06442
C         -1.22592       -4.22231        0.54768
C         -1.12239       -4.40417       -0.81741
C         -1.21197       -3.32136       -1.66903
C         -1.39403       -2.05380       -1.14854
H         -1.47262       -1.19441       -1.79566
H         -1.51550       -2.80630        2.12665
Pd        -0.10525        0.90667       -0.48287
Cl         1.38179        1.67618       -1.98160
Cl        -1.82374        1.25900       -1.89775
H         -2.15982       -0.57921        3.11775
H         -1.47943        1.01839        2.88677
H          0.18207       -1.54013        2.67115
H         -0.00227       -0.66771        4.17124
H          2.07944        0.09860        3.24528
H          0.95036        1.40676        2.95141
H          3.75230        4.70117        0.71530
H          6.23915        1.38841       -0.28518
H          2.31086       -2.97443       -2.59183
H          2.67825       -4.46961        1.38126
H         -5.15642        3.23438        0.69149
H         -6.33794       -0.64957       -0.60394
H         -1.16251       -5.06916        1.21109
H         -1.13590       -3.46114       -2.73474
H          5.93617        3.81100        0.01644
H          2.71126       -4.84882       -1.04787
H         -6.88277        1.71034       -0.17290
H         -0.97438       -5.39340       -1.21886
