171
-217.84664441
P         -1.57094        0.33541       -0.43481
P          1.62092       -0.38501       -0.18465
C         -0.78061        1.31874       -1.71112
C          1.02238       -1.34881       -1.58091
C          0.07215        0.71627       -2.62799
C          0.72155        1.52371       -3.58160
C          0.47045        2.88582       -3.59779
C         -0.39620        3.46022       -2.69184
C         -1.01645        2.67093       -1.74315
C          1.24865       -2.70389       -1.56849
C          0.74175       -3.50447       -2.57277
C         -0.01054       -2.93917       -3.58016
C         -0.25240       -1.57600       -3.61185
C          0.29014       -0.75567       -2.60384
Cl         1.34953        0.13108        3.01569
Cl        -1.86885       -0.54761        2.69510
C         -1.08917       -1.01178       -4.70655
C          1.64947        0.93473       -4.58582
H         -0.58858        4.52019       -2.72310
H         -1.69143        3.10997       -1.02633
H          1.82385       -3.14033       -0.76837
H          0.92665       -4.56621       -2.56275
H          0.96286        3.49872       -4.33384
H         -0.42533       -3.56054       -4.35598
C         -3.77090       -3.26435       -2.05982
C         -2.82199       -3.45455       -1.06340
C         -2.15479       -2.33587       -0.58084
C         -2.41625       -1.09416       -1.10335
C         -3.34142       -0.92479       -2.10425
C         -4.04703       -2.01499       -2.60063
H         -4.32618       -4.11397       -2.41193
H         -1.42990       -2.42148        0.20988
H         -3.51319        0.06793       -2.48447
C         -4.48431        2.77662        2.04917
C         -3.12641        3.05723        2.14430
C         -2.25586        2.33157        1.34194
C         -2.72748        1.34821        0.50746
C         -4.07123        1.07641        0.43670
C         -4.98127        1.79576        1.20026
H         -5.17856        3.32170        2.66052
H         -1.19570        2.51424        1.39136
H         -4.40413        0.28167       -0.20599
C          4.48246       -2.77250        2.40354
C          3.14655       -3.15176        2.36774
C          2.28673       -2.42701        1.55167
C          2.75405       -1.36683        0.81433
C          4.07752       -1.00504        0.86630
C          4.97399       -1.70703        1.66092
H          5.15682       -3.31154        3.04327
H          1.23806       -2.66565        1.50743
H          4.40340       -0.15528        0.29419
C          3.73391        3.48454       -1.19071
C          2.72335        3.50062       -0.23715
C          2.05980        2.30830        0.02041
C          2.41329        1.15671       -0.63788
C          3.42286        1.15455       -1.56905
C          4.10812        2.32767       -1.86317
H          4.25912        4.39432       -1.41189
H          1.26801        2.26897        0.74792
H          3.67774        0.22620       -2.05136
Pd        -0.12681       -0.12875        1.34564
C         -1.37990       -4.86968        0.47701
C         -2.56992       -4.85970       -0.50130
C         -2.25367       -5.82931       -1.65588
C         -3.82793       -5.33419        0.24687
H         -0.47394       -4.50980       -0.00988
H         -1.57934       -4.24225        1.34544
H         -1.18494       -5.87904        0.83900
H         -2.02694       -6.82563       -1.27677
H         -3.09409       -5.92022       -2.34262
H         -1.39268       -5.48136       -2.22534
H         -4.07018       -4.65232        1.06187
H         -4.68887       -5.37764       -0.41948
H         -3.67980       -6.32778        0.66951
C         -6.51027       -2.17532       -3.00306
C         -5.15164       -1.86525       -3.65690
C         -4.90634       -2.84734       -4.81879
C         -5.19563       -0.43554       -4.23086
H         -6.53616       -3.19293       -2.61452
H         -6.70243       -1.49671       -2.17281
H         -7.32321       -2.06923       -3.72114
H         -3.93553       -2.67141       -5.27960
H         -4.93323       -3.88201       -4.47991
H         -5.66815       -2.73371       -5.58993
H         -5.43312        0.29291       -3.45593
H         -4.24028       -0.16373       -4.67914
H         -5.96009       -0.35218       -5.00324
C         -3.66624        4.74047        3.97840
C         -2.55875        4.09148        3.12650
C         -1.83696        5.19728        2.33796
C         -1.56305        3.39199        4.07249
H         -4.20003        3.99163        4.56329
H         -3.24334        5.46363        4.67568
H         -4.38491        5.26867        3.35211
H         -1.42649        5.95264        3.00784
H         -1.01548        4.78603        1.75556
H         -2.52187        5.69066        1.64861
H         -2.05402        2.58783        4.61998
H         -0.72998        2.95608        3.52291
H         -1.15240        4.09453        4.79726
C         -6.94718        1.01186        2.53963
C         -6.48866        1.50806        1.15658
C         -6.82973        0.42837        0.11037
C         -7.24620        2.79687        0.78704
H         -8.01198        0.77951        2.53821
H         -6.40429        0.11040        2.82321
H         -6.76990        1.76376        3.30776
H         -7.90407        0.24813        0.07564
H         -6.51374        0.73712       -0.88593
H         -6.34561       -0.51823        0.35002
H         -6.91158        3.17597       -0.17843
H         -8.31882        2.61403        0.72442
H         -7.08562        3.57906        1.52791
C          1.16220       -4.60280        3.02014
C          2.65366       -4.30010        3.25893
C          2.84155       -3.90428        4.73450
C          3.46191       -5.57433        2.95152
H          0.98691       -4.88336        1.98238
H          0.82850       -5.42917        3.64748
H          0.54170       -3.73877        3.25739
H          3.89106       -3.72380        4.96422
H          2.28881       -2.99224        4.95940
H          2.48323       -4.69025        5.39900
H          3.36316       -5.84798        1.90116
H          4.52121       -5.43493        3.16331
H          3.11093       -6.41271        3.55299
C          7.32999       -2.52149        1.36937
C          6.45514       -1.31621        1.76050
C          6.76840       -0.89194        3.20665
C          6.79647       -0.14256        0.82072
H          8.38830       -2.26401        1.40862
H          7.16803       -3.36431        2.04018
H          7.10003       -2.85070        0.35618
H          6.14093       -0.05214        3.50469
H          6.58817       -1.70789        3.90562
H          7.81030       -0.58866        3.30793
H          6.58544       -0.39913       -0.21725
H          6.22468        0.74820        1.08054
H          7.85352        0.11399        0.88941
C          1.02829        5.33055       -0.15802
C          2.30908        4.78620        0.49321
C          3.40927        5.86292        0.40948
C          2.04954        4.48835        1.98420
H          0.23275        4.58775       -0.12428
H          0.67925        6.22914        0.35033
H          1.20554        5.58034       -1.20383
H          4.35654        5.48158        0.79053
H          3.55934        6.19915       -0.61594
H          3.13938        6.73797        1.00066
H          1.81437        5.40269        2.52871
H          1.21312        3.80519        2.11899
H          2.92812        4.03781        2.44532
C          6.56623        2.75129       -2.08403
C          5.28527        2.36844       -2.84837
C          5.00775        3.41552       -3.94349
C          5.51165        1.00080       -3.52178
H          6.47265        3.73401       -1.62319
H          6.77318        2.03062       -1.29356
H          7.42697        2.77591       -2.75209
H          5.81572        3.43749       -4.67461
H          4.08240        3.18991       -4.47133
H          4.91506        4.41590       -3.52272
H          4.62812        0.68193       -4.07316
H          6.34105        1.04983       -4.22719
H          5.75272        0.23525       -2.78457
H         -1.39601        0.01236       -4.49054
H          2.06405       -0.01188       -4.23642
H         -1.99497       -1.60282       -4.84123
H         -0.54629       -1.01139       -5.65273
H          2.48373        1.60630       -4.78802
H          1.13555        0.75105       -5.53018
