115
-277.94213510
P         -2.04142       -0.42493       -0.05424
P          1.61113        0.65167       -0.29904
C         -1.87208       -2.21100        0.14192
C         -0.64603       -2.78201        0.41180
H          0.19447       -2.16930        0.69141
C         -0.47921       -4.14281        0.26350
H          0.49388       -4.59829        0.36485
C         -1.53785       -4.93300       -0.14998
C         -2.79465       -4.36616       -0.28767
H         -3.61217       -4.98331       -0.62345
C         -2.96447       -3.00627       -0.12804
H         -3.92858       -2.55386       -0.30205
C         -3.56879        0.14390        0.71366
C         -4.18629       -0.57383        1.71192
H         -3.74693       -1.49516        2.05898
C         -5.34709       -0.09565        2.28609
H         -5.83991       -0.63449        3.07994
C         -5.89616        1.09671        1.85705
C         -5.26707        1.81147        0.85588
H         -5.70118        2.74542        0.53443
C         -4.10445        1.33656        0.28646
H         -3.61556        1.89324       -0.49633
C         -1.92168        0.21082       -1.76294
C         -1.38377        1.48539       -1.80695
H         -1.04542        1.94420       -0.89305
C         -1.12230        2.12349       -3.01981
C         -1.62951        1.54279       -4.17564
H         -1.47528        2.03241       -5.12269
C         -2.17299        0.27476       -4.14025
H         -2.44228       -0.20879       -5.06394
C         -2.22000       -0.45992       -2.95555
C          1.26038        0.19941       -2.03501
C          0.70723       -1.06347       -2.11298
H          0.49466       -1.59471       -1.20356
C          0.26480       -1.59667       -3.32236
C          0.60023       -0.91607       -4.48598
H          0.30604       -1.32324       -5.43886
C          1.15468        0.34658       -4.42006
H          1.28943        0.90974       -5.32803
C          1.38310        0.97609       -3.19574
C         -2.25731       -1.96638       -3.07896
H         -2.94153       -2.23616       -3.89129
H         -2.72214       -2.38442       -2.18892
C         -0.84369       -2.61581       -3.32736
H         -0.62814       -3.38390       -2.57728
H         -0.82869       -3.15890       -4.27904
C         -0.02203        3.14714       -3.11730
H         -0.08713        3.83302       -2.26673
H         -0.19823        3.78590       -3.99031
C          1.40514        2.48910       -3.19801
H          1.92723        2.83755       -4.09698
H          2.03551        2.84980       -2.38854
C          2.18969        2.35108       -0.20882
C          1.30099        3.36377        0.07945
C          3.46343        2.63816       -0.65296
C          1.64609        4.67067       -0.19556
C          3.79978        3.94536       -0.94776
C          2.86722        4.95982       -0.78261
C          2.93689       -0.38853        0.34706
C          3.57887       -1.26680       -0.49591
C          3.32199       -0.29156        1.66288
C          4.60434       -2.05669       -0.01694
H          3.28221       -1.33086       -1.52985
C          4.34555       -1.07883        2.14295
H          2.82063        0.40303        2.31596
C          4.98862       -1.97115        1.30651
H          5.12558       -2.74676       -0.66147
H          4.66264       -1.00819        3.17169
Pd        -0.20936        0.39854        1.16322
Cl        -1.60824        0.00834        2.88338
Cl         1.14232        1.62704        2.49034
H          4.74260        4.17259       -1.41889
H          4.15033        1.83456       -0.86863
H          0.92907        5.46901       -0.08096
H          0.31822        3.13223        0.45610
C         -2.43901       -7.24813       -0.65382
C         -1.22693       -6.27726       -0.75765
C         -0.80869       -5.98961       -2.23369
F         -3.43901       -6.80640       -1.42906
F         -2.05355       -8.47472       -1.03880
F         -2.83544       -7.26861        0.62734
F         -0.18980       -6.83990       -0.13266
F         -0.61630       -7.14271       -2.88824
F         -1.76346       -5.25560       -2.82114
F          0.32327       -5.27330       -2.19682
C         -6.80046        2.87715        3.35197
C         -7.15347        1.62351        2.50080
C         -8.21709        1.93012        1.40560
F         -5.93101        2.48966        4.29751
F         -6.23095        3.80110        2.56457
F         -7.91615        3.36089        3.91863
F         -7.67025        0.70522        3.32186
F         -7.78662        2.93739        0.63328
F         -8.36457        0.82153        0.66471
F         -9.37929        2.25099        1.99441
C          7.39404       -1.90799        1.94629
C          6.13560       -2.81126        1.80730
C          5.74691       -3.50172        3.14781
F          8.41864       -2.63726        2.41342
F          7.68177       -1.43099        0.72570
F          7.11857       -0.89113        2.77624
F          6.41979       -3.77277        0.92447
F          6.69874       -4.38711        3.48094
F          5.61007       -2.57511        4.10657
F          4.57737       -4.12973        2.95380
C          4.45859        6.68301       -1.75258
C          2.97689        6.25263       -1.55290
C          2.23132        6.00487       -2.90379
F          5.04611        6.69183       -0.54688
F          5.07968        5.80459       -2.55171
F          4.49014        7.91181       -2.29151
F          2.34405        7.23260       -0.90342
F          0.94274        5.77734       -2.61474
F          2.35288        7.07875       -3.69541
F          2.74168        4.91422       -3.49192
