45
-71.81668490
C          0.60998        1.70249        2.92470
P         -0.12466        0.74925        1.55309
P         -0.11746        0.92106       -1.57129
C          0.59333        1.92007       -2.92332
Cl         3.00524       -0.17532        1.56186
H         -0.13848        1.89731        3.68730
H          1.40043        1.37258       -3.40182
Cl         2.89932       -0.28126       -1.70025
C         -1.39207        1.72710        0.72215
C         -1.38122        1.81464       -0.65172
C         -2.35465        2.53621       -1.31149
C         -3.33727        3.18513       -0.58448
C         -3.34484        3.10353        0.79474
C         -2.37105        2.37139        1.45105
H         -2.34482        2.58069       -2.38852
H         -4.09859        3.75127       -1.09543
H         -4.11098        3.60764        1.36052
H         -2.36998        2.29559        2.52642
Pd         1.49285        0.25380       -0.03898
H          0.98831        2.84965       -2.52348
H          0.99390        2.64817        2.55293
H         -0.16832        2.14870       -3.66320
C         -1.83685       -3.09748       -2.82185
C         -1.85388       -2.69566       -1.50098
C         -1.32703       -1.46589       -1.15305
C         -0.78841       -0.64959       -2.11968
C         -0.76656       -1.04546       -3.43738
C         -1.29402       -2.27483       -3.79004
H         -2.24530       -4.05601       -3.09751
H         -2.27079       -3.33694       -0.74196
H         -1.31817       -1.14036       -0.12724
H         -0.33556       -0.39765       -4.18294
H         -1.27853       -2.59118       -4.82010
C         -1.67139       -3.29828        2.92206
C         -2.57019       -2.28834        2.63840
C         -2.10909       -1.04725        2.23866
C         -0.75522       -0.82785        2.12573
C          0.14382       -1.83042        2.40725
C         -0.31367       -3.07186        2.80830
H         -2.03059       -4.26589        3.23241
H         -3.62935       -2.46701        2.72524
H         -2.79817       -0.25285        2.00270
H          1.19857       -1.63302        2.29581
H          0.38784       -3.86017        3.02650
H          1.42653        1.13966        3.36796
