64
-97.22354223
Cl        -1.20538       -0.28876       -2.88873
Cl         1.91891       -0.68575       -2.89991
P          1.96714       -0.65175        0.36297
C          2.09023       -2.40089        0.96807
C          3.78258       -0.28641        0.19205
P         -1.27148       -0.33257        0.36694
C          1.16994        0.47924        1.56177
C         -0.27543        0.60673        1.58905
C         -0.61251        1.61539        2.58335
C          0.62849        2.11531        3.15052
C          1.73329        1.39922        2.53659
H         -1.61921        1.91226        2.88383
H          0.71394        2.86925        3.93657
Pd         0.33923       -0.68876       -1.30733
H          2.79536        1.53622        2.74945
C         -5.14890        1.64852       -0.99178
C         -4.81234        0.38138       -1.42423
C         -3.63154       -0.20079       -0.99843
C         -2.79133        0.48451       -0.15070
C         -3.13179        1.74344        0.28863
C         -4.30986        2.33059       -0.13347
H         -6.06711        2.10502       -1.32384
H         -5.46526       -0.15323       -2.09443
H         -3.35457       -1.18877       -1.33150
H         -2.47324        2.26719        0.95779
H         -4.57139        3.31921        0.20669
C         -2.40891       -4.41975        1.98699
C         -1.98769       -4.29666        0.67720
C         -1.64606       -3.05312        0.17736
C         -1.72400       -1.94719        0.99215
C         -2.15110       -2.06092        2.29500
C         -2.49381       -3.30400        2.79697
H         -2.67499       -5.38863        2.37712
H         -1.92622       -5.16679        0.04441
H         -1.32526       -2.93924       -0.84572
H         -2.20674       -1.17847        2.91310
H         -2.82500       -3.40018        3.81792
C          4.15626        0.60593       -0.97129
H          4.07403        0.18352        1.14068
C          4.39530       -1.69427        0.10141
H          5.45533       -1.67107        0.39724
C          3.59932       -2.71209        0.95757
H          4.38890       -2.01268       -0.95041
C          1.46202       -2.53331        2.33860
H          1.55976       -3.01527        0.22844
H          3.97226       -2.68634        1.99028
H          3.77683       -3.74045        0.60954
H          0.41030       -2.24531        2.32514
H          1.52721       -3.55791        2.71202
H          1.96555       -1.88306        3.05677
H          5.24007        0.70677       -1.05766
H          3.79250        0.19246       -1.91140
H          3.74202        1.60760       -0.86286
Fe         0.60114        2.33783        1.12604
C          1.20911        2.45634       -0.81861
C          1.89988        3.43028        0.00722
C          0.89446        4.27762        0.62619
C         -0.41185        3.83498        0.16860
C         -0.21474        2.70865       -0.72511
H          1.66425        1.70520       -1.46751
H          2.98099        3.53064        0.12784
H          1.08877        5.12301        1.29072
H         -1.36847        4.29987        0.41773
H         -0.98773        2.16469       -1.27163
