72
-98.10013789
Fe         0.01413        2.83512        0.04328
P          1.88488       -0.04937       -0.02721
P         -1.83130       -0.04090        0.02085
C          1.42070        1.56326        0.70369
C          0.42494        1.75621        1.74324
C          0.36259        3.17782        2.03437
C          1.36062        3.85381        1.22374
C          2.02660        2.85193        0.40844
C         -1.42736        1.61440       -0.66438
C         -2.01288        2.88123       -0.25186
C         -1.37139        3.94311       -1.00799
C         -0.41028        3.33633       -1.90989
C         -0.44799        1.90027       -1.69785
C          3.31012       -0.69208        0.97339
C          4.49194        0.06864        0.35125
C          2.82074        0.19649       -1.61834
C          4.30105        0.28980       -1.17406
C         -3.16243       -0.77049       -1.05407
C         -4.36226        0.10645       -0.65539
C         -2.93647        0.21970        1.49759
C         -4.31441        0.50446        0.85120
H         -0.18044        0.97264        2.19977
H         -0.29198        3.65046        2.77040
H          1.58164        4.92351        1.23505
H          2.83393        3.02867       -0.30535
H         -2.78168        3.01370        0.51149
H          0.15612        1.16230       -2.22212
Cl         1.61975       -3.07189        0.08649
Cl        -1.52056       -3.12355        0.15872
Pd         0.01859       -1.48185       -0.02123
H          3.39673       -1.76433        0.76494
C          3.16160       -0.45588        2.47200
H          2.47866        1.14413       -2.05091
C          2.59246       -0.95268       -2.60243
H          5.43811       -0.45433        0.56048
H          4.57957        1.04132        0.85673
H          4.73444        1.25332       -1.48056
H          4.87904       -0.46794       -1.72072
H         -1.59259        5.00997       -0.92939
H          0.22472        3.86398       -2.62524
H          4.11513       -0.68621        2.96721
H          3.40460       -0.95594       -3.34305
H         -3.32725       -1.79971       -0.71426
C         -2.83341       -0.75818       -2.55036
H         -2.55707        1.09427        2.03936
C         -2.99257       -0.99060        2.42779
H         -5.30861       -0.39941       -0.90254
H         -4.34472        1.01212       -1.27956
H         -4.59030        1.56180        0.97657
H         -5.08391       -0.05439        1.40230
H         -3.76257       -0.62412       -3.12166
H         -3.28745       -1.86946        1.83957
C          2.04294       -1.26945        3.09500
H          1.08645       -1.01111        2.64474
H          2.19437       -2.33886        2.93695
H          1.95713       -1.10037        4.17078
C          1.25872       -0.90009       -3.32659
H          1.17319        0.00131       -3.93651
H          1.11914       -1.75684       -3.98987
H          0.42882       -0.89583       -2.62248
C         -2.13158       -2.02595       -3.01619
H         -1.24034       -2.23117       -2.42386
H         -2.78145       -2.89648       -2.90841
H         -1.82991       -1.96919       -4.06445
C         -1.69942       -1.27088        3.17068
H         -1.80173       -2.10358        3.87040
H         -0.90342       -1.53463        2.47727
H         -1.37024       -0.40087        3.74168
H          2.99680        0.61527        2.64740
H          2.69631       -1.90065       -2.05791
H         -2.22929        0.12973       -2.77585
H         -3.80613       -0.84282        3.15181
