72
-108.39764620
Cl         1.90594       -0.18076        2.81986
Cl        -0.84429        1.21215        2.78067
P         -1.21029        0.99479       -0.30538
P          2.21363       -0.18643       -0.37665
C          3.38737        1.30028       -0.27267
C          4.10782        1.27839        1.07208
C          4.41600        1.27213       -1.41212
C          3.12809       -1.84247       -0.11990
C          4.49154       -1.80211       -0.80166
C          1.42947       -0.36260       -2.08014
C          1.33915        0.89552       -2.92606
C         -1.15020       -0.31166       -1.56688
C          0.05593       -1.01303       -2.01131
C         -0.38913       -2.13609       -2.83957
C         -1.83644       -2.09953       -2.93031
C         -2.30435       -0.96644       -2.15499
C          2.54863        2.57372       -0.35128
H          4.74541        0.40223        1.17388
H          4.74496        2.15767        1.18050
H          4.79898        2.27418       -1.61237
H          3.99662        0.88264       -2.33710
C          3.30232       -2.14167        1.36370
H          4.40596       -1.47013       -1.83665
H          4.94442       -2.79495       -0.81065
H          2.10829       -1.05534       -2.59060
H          0.63994        1.60008       -2.48466
H          0.95488        0.66513       -3.92168
H          2.29298        1.40162       -3.05865
H          0.26584       -2.80601       -3.39991
H         -2.46225       -2.78413       -3.50727
Pd         0.51445        0.41786        1.16175
H         -3.34269       -0.67276       -1.98652
C          2.29564       -2.95323       -0.75719
H          5.18074       -1.14557       -0.27389
H          2.33742       -2.24242        1.85812
H          3.84625       -3.07603        1.51064
H          3.85647       -1.35428        1.87138
H          1.25753       -2.87831       -0.44875
H          2.32833       -2.91305       -1.84563
H          2.66538       -3.93675       -0.46185
H          3.39770        1.28366        1.89824
H          5.27865        0.65627       -1.16269
H          1.99921        2.64630       -1.28654
H          1.83264        2.62339        0.46863
H          3.18314        3.45871       -0.27848
C         -2.90267        1.05914        0.33555
C         -3.37394        2.04319        1.16819
C         -4.70868        1.74467        1.44208
C         -4.99924        0.58887        0.76024
O         -3.89987        0.15771        0.07557
H         -2.80882        2.88021        1.54459
H         -5.37952        2.31031        2.06789
H         -5.95539        0.08026        0.75617
C         -0.80444        2.64577       -0.89740
C         -0.54178        3.67092       -0.02354
C         -0.26674        4.80301       -0.79195
C         -0.37526        4.41912       -2.10644
O         -0.70298        3.09542       -2.18586
H         -0.54136        3.59458        1.05247
H         -0.01860        5.78553       -0.42510
H         -0.22502        5.05959       -2.96671
Fe        -1.24552       -2.23062       -0.97657
C         -2.89664       -2.63653        0.16878
C         -1.89787       -1.95153        0.96348
C         -0.68545       -2.74123        0.94054
C         -0.92303       -3.91001        0.11207
C         -2.29009       -3.83946       -0.37311
H         -3.92253       -2.29752        0.00847
H         -2.04276       -1.02732        1.52674
H          0.21431       -2.52047        1.51646
H         -0.21976       -4.72611       -0.07101
H         -2.78899       -4.58361       -0.99889
