105
-153.07210464
Cl        -0.88802        1.99377       -2.85552
Pd         0.10296        1.52029       -0.89084
P          1.35761        0.72760        0.89728
N          0.65467       -0.52690        1.90370
C          0.04075       -1.74742        1.66179
C         -0.10348       -2.32375        0.37550
C         -0.84636       -3.51345        0.22761
C         -0.99165       -4.10656       -1.15472
C         -1.54580       -5.53980       -1.18297
C         -2.70345       -5.70318       -0.19383
C         -2.24078       -5.38912        1.23675
C         -1.41902       -4.12955        1.34219
C         -1.22007       -3.57529        2.59947
C         -0.50690       -2.41552        2.75672
H         -0.39074       -1.98457        3.73600
H         -1.65295       -4.06084        3.45774
H         -3.10636       -5.30463        1.90637
H         -3.51671       -5.02140       -0.47240
H         -1.86106       -5.81641       -2.19897
H         -1.64169       -3.44869       -1.74345
C          0.66807       -1.83828       -0.79425
C         -0.00139       -1.22774       -1.88998
C          0.71741       -1.00554       -3.06807
C          2.03136       -1.38066       -3.17660
C          2.68660       -2.01847       -2.13051
C          4.09637       -2.50265       -2.34462
C          4.43486       -3.72236       -1.47660
C          4.10791       -3.43574       -0.00812
C          2.62785       -3.05799        0.18540
C          2.00674       -2.25104       -0.93372
H          2.03572       -3.97235        0.31159
H          4.74367       -2.61546        0.34273
H          5.48883       -4.01105       -1.59649
H          4.79038       -1.68461       -2.12315
H          2.56651       -1.19798       -4.09298
H          0.22542       -0.51515       -3.88951
N         -1.34296       -0.82938       -1.82547
P         -1.85140        0.20435       -0.48732
C         -2.78713       -0.70981        0.73820
C         -3.56296       -1.75845        0.30641
C         -4.34724       -2.45138        1.21113
C         -4.35627       -2.09466        2.55271
C         -3.58905       -1.01190        2.96204
C         -2.80887       -0.31774        2.05534
H         -2.21262        0.52103        2.37229
H         -3.60387       -0.71772        3.99757
C         -5.20023       -2.83711        3.52886
H         -4.95499       -3.27590        0.88007
H         -3.54697       -2.03090       -0.73701
C         -2.98637        1.48438       -1.03903
C         -2.95349        2.72624       -0.44941
C         -3.83226        3.70783       -0.86942
C         -4.75716        3.44674       -1.87143
C         -4.77601        2.18496       -2.45059
C         -3.89546        1.20433       -2.03051
H         -3.91494        0.22100       -2.47229
H         -5.48230        1.97606       -3.23583
C         -5.68181        4.51315       -2.34599
H         -3.80126        4.68691       -0.42270
H         -2.23709        2.92700        0.33125
H         -1.69309       -0.37106       -2.65681
H          0.84930       -0.28254        2.86718
C          1.31163        2.22376        1.89199
C          2.45394        2.93386        2.17522
C          2.37332        4.09645        2.91926
C          1.14681        4.56013        3.37624
C          0.00507        3.82598        3.08465
C          0.08916        2.66296        2.34086
H         -0.79513        2.09690        2.09928
H         -0.95028        4.17165        3.44098
C          1.06213        5.80106        4.19510
H          3.26541        4.65471        3.14652
H          3.40348        2.58274        1.80619
C          3.08727        0.37187        0.58997
C          3.69432        0.72899       -0.59015
C          5.04590        0.49999       -0.76655
C          5.80338       -0.07347        0.24536
C          5.17625       -0.41616        1.43573
C          3.82165       -0.19132        1.60677
H          3.33221       -0.44812        2.53299
H          5.75318       -0.86552        2.22589
C          7.25070       -0.35553        0.03940
H          5.52306        0.77295       -1.69231
H          3.11431        1.20819       -1.36080
Cl         1.71564        3.06384       -1.12243
H         -1.64878       -6.22585        1.62631
H         -0.74568       -6.24397       -0.92225
H         -3.13117       -6.71392       -0.25553
H         -0.01640       -4.07506       -1.65655
H          4.37346       -4.29633        0.62177
H          2.50149       -2.50334        1.12295
H          4.24408       -2.73496       -3.40700
H          3.84949       -4.58546       -1.81793
H         -6.18207       -2.37172        3.62522
H         -5.34694       -3.87179        3.21563
H         -4.73630       -2.85381        4.51611
H         -6.61656        4.08877       -2.71503
H         -5.92857        5.20721       -1.54136
H         -5.22834        5.08499       -3.15669
H          0.10517        6.30415        4.04950
H          1.16446        5.57248        5.25681
H          1.84996        6.50549        3.92467
H          7.71218        0.40220       -0.59534
H          7.78970       -0.36575        0.98774
H          7.39143       -1.32624       -0.43822
