58
-89.86703219
P          1.65337        0.26690        0.84054
C          2.88019        1.54074        0.51614
C          2.64629        2.82503        0.95313
C          3.56623        3.82240        0.68188
C          4.71070        3.52770       -0.03228
C          4.93543        2.24083       -0.47934
C          4.01426        1.24615       -0.20572
H          4.16784        0.24246       -0.56716
H          1.74023        3.04645        1.49460
C          2.29364       -1.37309        0.48220
C          1.56925       -2.24635       -0.29511
C          2.05201       -3.51858       -0.53858
C          3.25995       -3.91021        0.00292
C          3.98083       -3.03501        0.79129
C          3.49220       -1.76357        1.03514
H          4.03918       -1.07338        1.65813
H          0.61832       -1.94061       -0.69545
C          1.18124        0.30633        2.61020
C          0.16105       -0.76946        2.94963
C         -1.26663       -0.38303        2.60068
P         -1.65581       -0.29888        0.80178
C         -3.24590        0.52814        0.69040
C         -4.36413       -0.17099        0.29764
C         -5.58307        0.47648        0.20771
C         -5.67154        1.82070        0.51181
C         -4.54621        2.51799        0.90518
C         -3.32830        1.86744        0.99482
H         -2.43831        2.40038        1.29103
H         -4.27799       -1.21850        0.05817
C         -1.72881       -1.92736        0.04231
C         -1.57845       -3.08130        0.77808
C         -1.60374       -4.30862        0.14065
C         -1.78027       -4.37280       -1.22765
C         -1.93588       -3.21365       -1.96128
C         -1.91043       -1.98896       -1.32087
H         -2.02120       -1.07019       -1.87492
H         -1.43937       -3.02407        1.84475
Pd        -0.10081        0.74055       -0.59148
Cl         1.39018        1.40032       -2.13241
Cl        -1.89028        1.31309       -1.83270
H         -1.98764       -1.08142        3.03213
H         -1.50272        0.59827        3.01689
H          0.43219       -1.70323        2.43884
H          0.21818       -0.99988        4.02520
H          2.11071        0.16951        3.16846
H          0.80366        1.30058        2.85393
H          3.38592        4.82865        1.02280
H          5.82302        2.01218       -1.04605
H          1.48119       -4.20323       -1.14405
H          4.92119       -3.34180        1.21894
H         -6.46035       -0.06691       -0.10271
H         -4.61430        3.56801        1.13762
H         -1.48201       -5.21415        0.71206
H         -2.07335       -3.26130       -3.02896
H          5.42627        4.30464       -0.24690
H          3.63841       -4.90154       -0.18615
H         -6.62007        2.32735        0.43892
H         -1.79717       -5.32955       -1.72367
