115
-277.94114894
P         -1.66438       -0.70776       -0.03909
P          1.98932        0.38431        0.03027
C         -2.11839       -2.43617        0.15291
C         -1.15188       -3.37559        0.43986
H         -0.17181       -3.06554        0.76296
C         -1.41963       -4.71223        0.22841
H         -0.64648       -5.45670        0.33999
C         -2.64282       -5.10445       -0.29071
C         -3.64708       -4.16105       -0.45386
H         -4.59065       -4.46856       -0.87516
C         -3.38701       -2.82391       -0.22477
H         -4.13350       -2.07635       -0.44398
C         -3.05579        0.27375        0.56891
C         -3.78186        1.01641       -0.33388
H         -3.50773        1.01124       -1.37613
C         -4.85616        1.76638        0.09639
H         -5.42558        2.36491       -0.59667
C         -5.21531        1.77102        1.43073
C         -4.48281        1.02320        2.33055
H         -4.76447        1.04625        3.37165
C         -3.40920        0.27445        1.89766
H         -2.84022       -0.31104        2.60137
C         -1.38786       -0.30639       -1.79927
C         -0.89025        0.97480       -1.93553
H         -0.65857        1.54066       -1.05021
C         -0.53342        1.48826       -3.18132
C         -0.90106        0.76225       -4.30777
H         -0.67355        1.15380       -5.28512
C         -1.40011       -0.51874       -4.18144
H         -1.55739       -1.11290       -5.06574
C         -1.53963       -1.12096       -2.93097
C          1.79539       -0.22096       -1.68033
C          1.30002       -1.51285       -1.70922
H          1.01159       -1.98464       -0.78430
C          1.01821       -2.15474       -2.91485
C          1.45720       -1.54752       -4.08570
H          1.28781       -2.03896       -5.02917
C          1.94826       -0.25750       -4.06521
H          2.15808        0.24171       -4.99602
C          2.01315        0.47326       -2.87903
C         -1.49443       -2.63272       -2.88756
H         -2.11753       -3.03879       -3.69289
H         -1.98497       -2.98575       -1.98426
C         -0.04018       -3.22442       -2.97619
H          0.13237       -3.95874       -2.18228
H          0.08176       -3.79520       -3.90367
C          0.52654        2.55203       -3.27428
H          0.27996        3.36429       -2.58205
H          0.48278        3.01590       -4.26600
C          1.96733        1.98259       -2.99547
H          2.65831        2.30282       -3.78328
H          2.37377        2.42482       -2.08965
C          2.02456        2.17762        0.17320
C          0.86454        2.89070        0.38532
C          3.20490        2.82844       -0.11756
C          0.85611        4.25205        0.16630
C          3.19460        4.19176       -0.33616
C          2.00676        4.89893       -0.25708
C          3.51898       -0.27387        0.73071
C          4.03894       -1.43408        0.20515
C          4.17524        0.37377        1.75219
C          5.21859       -1.94726        0.70116
H          3.53131       -1.93019       -0.60520
C          5.35531       -0.14036        2.25037
H          3.76003        1.27914        2.16539
C          5.88239       -1.30514        1.72884
H          5.64777       -2.84550        0.28716
H          5.88999        0.35781        3.04380
Pd         0.18784       -0.32076        1.36484
Cl        -1.16597       -1.41062        2.80217
Cl         1.61841        0.27920        2.99186
H          4.07813        4.70499       -0.68265
H          4.10799        2.25911       -0.27403
H         -0.06463        4.81037        0.22198
H         -0.04086        2.38498        0.67685
C         -4.16041       -6.96905       -1.10300
C         -2.70285       -6.43408       -1.00094
C         -2.04530       -6.19739       -2.39859
F         -4.68552       -6.95780        0.13112
F         -4.87819       -6.17244       -1.90684
F         -4.13574       -8.22181       -1.58391
F         -1.97292       -7.34075       -0.34686
F         -2.13503       -7.31016       -3.13910
F         -2.65650       -5.16845       -3.00170
F         -0.76203       -5.87481       -2.18772
C         -5.84256        4.10294        2.02159
C         -6.34731        2.63505        1.92512
C         -7.58546        2.49246        0.99113
F         -4.84073        4.12389        2.91383
F         -5.38739        4.49209        0.82139
F         -6.84519        4.89562        2.42931
F         -6.71717        2.24940        3.14948
F         -7.30814        3.02418       -0.20754
F         -7.84251        1.18266        0.85752
F         -8.63433        3.11502        1.55079
C          7.17447       -3.35420        2.41712
C          7.21421       -1.80915        2.22368
C          8.31230       -1.36592        1.21479
F          6.10628       -3.64000        3.17652
F          7.05583       -3.95413        1.22451
F          8.29898       -3.75045        3.03298
F          7.50126       -1.25980        3.40704
F          8.31929       -0.02453        1.19442
F          9.50452       -1.83104        1.61668
F          8.00624       -1.83440       -0.00406
C          1.42220        5.91580       -2.40732
C          1.91869        6.22908       -0.96103
C          0.99056        7.21928       -0.20060
F          1.38854        7.04409       -3.12913
F          2.28015        5.03704       -2.94528
F          0.21067        5.35058       -2.34260
F          3.12896        6.78604       -1.05196
F          1.03301        8.41461       -0.80963
F         -0.26325        6.74591       -0.18503
F          1.45182        7.32348        1.05488
