111
-148.55798815
P         -1.97933       -2.61654       -0.54272
P         -0.22422        0.02763       -0.57720
C         -1.39305       -1.93949       -2.11677
C         -0.68156       -0.75947       -2.13377
C         -1.42774       -4.36726       -0.31818
C         -0.52602       -4.47493        0.89243
C         -1.65988       -2.60164       -3.29779
H         -2.20557       -3.53093       -3.27443
C         -1.22034       -2.07161       -4.49858
H         -1.43019       -2.58627       -5.42199
C         -0.51173       -0.88551       -4.51408
H         -0.16624       -0.47443       -5.44835
C         -0.23578       -0.23084       -3.32693
H          0.33407        0.68452       -3.32125
Pd        -1.35303       -1.11583        1.08772
Cl        -2.80617       -2.08698        2.49128
Cl        -0.54537        0.35590        2.57755
C         -2.74821       -5.15418       -0.18982
C         -3.81405       -2.85903       -0.53539
H         -0.16908       -5.49740        1.03793
H          0.34185       -3.81868        0.79989
H         -1.06024       -4.17721        1.79721
H         -2.93329       -5.35770        0.87371
H         -2.65290       -6.14234       -0.66436
H         -4.14763       -2.60770        0.48009
C         -3.95635       -4.37183       -0.77801
C         -4.50724       -1.97874       -1.55346
H         -0.89437       -4.64255       -1.23747
H         -4.02472       -4.55385       -1.85929
H         -4.90522       -4.73863       -0.35747
H         -4.16654       -2.20699       -2.56434
H         -5.59021       -2.12056       -1.53167
H         -4.29940       -0.92196       -1.36933
C         -0.95878        4.51995       -0.40456
C          0.13908        4.02254       -1.15280
C          0.35307        2.65364       -1.17629
C         -0.51773        1.79300       -0.55945
C         -1.64075        2.26302        0.06954
C         -1.90892        3.61963        0.14011
O         -1.08676        5.91611       -0.17614
C          1.09799        4.94950       -1.91744
H          1.21562        2.23965       -1.66905
H         -2.30243        1.54935        0.52951
C         -3.19383        4.08614        0.84197
C          3.98405       -1.26743        0.58091
C          3.57246        0.06434        0.84610
C          2.28151        0.43198        0.50468
C          1.45110       -0.43575       -0.15286
C          1.87405       -1.69347       -0.49756
C          3.14885       -2.12930       -0.17544
O          5.21828       -1.76007        1.08398
C          4.48807        1.11325        1.49747
H          1.90038        1.40524        0.75970
H          1.18653       -2.33115       -1.02588
C          3.62921       -3.51048       -0.64895
C          0.35021        6.17532       -2.47319
C          2.23138        5.40101       -0.98463
C          1.72170        4.21532       -3.12595
C         -4.31690        3.03583        0.67965
C         -2.91091        4.26987        2.34092
C         -3.71803        5.39861        0.23200
C         -0.43896        6.37342        1.00442
H          1.01285        6.80135       -3.07022
H         -0.48180        5.86384       -3.10383
H         -0.05085        6.79151       -1.67212
H          1.84481        5.94348       -0.12576
H          2.78708        4.54214       -0.61157
H          2.93051        6.05342       -1.50720
H          2.39974        3.42381       -2.80995
H          0.94766        3.77556       -3.75442
H          2.29993        4.90472       -3.74078
H         -5.26295        3.41947        1.06091
H         -4.45864        2.77856       -0.36970
H         -4.09872        2.12250        1.23114
H         -2.13537        5.01329        2.50816
H         -3.80674        4.59123        2.87149
H         -2.57215        3.33414        2.78525
H         -3.01407        6.21394        0.37700
H         -3.88088        5.28522       -0.83926
H         -4.66207        5.69367        0.68940
H          0.26891        7.16185        0.74907
H         -1.17625        6.78947        1.69061
H          0.08846        5.55225        1.49159
C          5.15128       -2.24512        2.41941
C          4.16098        2.52445        0.95721
C          4.26423        1.10809        3.01746
C          5.96882        0.84872        1.16917
C          3.51943       -4.52780        0.49647
C          2.77628       -4.02012       -1.83225
C          5.08691       -3.42439       -1.13607
H          4.18513        2.53454       -0.13220
H          3.17931        2.86463        1.28319
H          4.88674        3.25433        1.31521
H          4.90364        1.84062        3.50930
H          3.22852        1.35132        3.25368
H          4.47679        0.13209        3.44654
H          6.12257        0.82171        0.09089
H          6.60711        1.62908        1.58287
H          6.30643       -0.10066        1.57517
H          2.49897       -4.58304        0.87177
H          3.80949       -5.52350        0.16178
H          4.16498       -4.25705        1.32680
H          3.19206       -4.94116       -2.24008
H          1.75488       -4.23857       -1.52350
H          2.74443       -3.28437       -2.63550
H          5.18163       -2.69190       -1.93703
H          5.43181       -4.38678       -1.51321
H          5.75360       -3.12577       -0.32983
H          4.11231       -2.33630        2.73883
H          5.63812       -3.21884        2.47441
H          5.67938       -1.56856        3.09002
