100
-131.96450461
C         -3.13636       -2.82283       -1.50552
C         -1.97119       -3.41306       -0.84127
C         -2.81734       -1.49030       -1.87607
C         -1.42227       -1.17845       -1.43939
C         -0.58658       -0.30192       -2.32613
C         -0.92555       -2.43629       -0.77457
C          0.47577       -2.81628       -0.31906
C          1.06701       -3.90056       -1.19548
Cl        -0.49954        1.43786        2.66521
Cl         0.46249       -1.56231        2.75216
C          0.69615        1.27751       -4.26305
C          0.21609        0.02774       -4.60199
C          0.54707        1.74012       -2.96352
C         -0.41984       -0.74041       -3.65890
C         -0.05626        0.96677       -2.00097
H         -1.89399       -4.44379       -0.49022
H         -3.44228       -0.83809       -2.49010
H          1.18496       -3.54101       -2.21945
H          2.04153       -4.23041       -0.82891
H          0.41804       -4.77869       -1.23673
H          1.18237        1.89116       -5.00357
H          0.32924       -0.33776       -5.60980
H          0.90018        2.72707       -2.70869
H         -0.81661       -1.70364       -3.93076
H         -4.06763       -3.34485       -1.73896
P         -0.13365        1.71411       -0.36656
H          0.37605       -3.19779        0.70650
P          1.70477       -1.43378       -0.11342
H          1.67912       -0.82691       -2.40755
C          3.53940       -1.91574       -2.32501
C          2.50113       -0.95865       -1.70832
C          3.45337       -1.88268       -3.85495
H          3.51730       -2.82548        0.55104
C          3.99563       -0.96754        1.56237
C          2.99295       -2.01939        1.06675
H          4.27536       -0.33922        0.69841
C          3.40813       -0.05370        2.64095
H          1.03985        3.77613       -0.78257
H         -1.95441        2.65301        0.88986
C         -4.22201        2.50231       -0.78103
C         -2.85498        1.79915       -0.88491
C         -1.75207        2.60118       -0.18708
C         -1.67888        4.02414       -0.76435
C         -3.04193        4.74164       -0.67912
C         -4.14637        3.92172       -1.37143
H         -4.51798        2.56553        0.27336
H         -5.00553        1.91054       -1.27481
H         -2.58565        1.68073       -1.94216
H         -2.89119        0.78205       -0.47913
H         -0.90581        4.61081       -0.25140
H         -1.35644        3.96187       -1.81099
H         -3.30688        4.88897        0.37532
H         -2.97781        5.75105       -1.10921
H         -3.93163        3.85722       -2.44560
H         -5.11817        4.42989       -1.29549
C          3.75169        3.37161       -0.18841
C          2.61522        2.35705       -0.42964
C          1.23961        2.94825       -0.09208
C          1.22311        3.49052        1.34409
C          2.33543        4.53191        1.56590
C          3.71395        3.92386        1.24858
H          3.65375        4.20140       -0.89944
H          4.72844        2.91540       -0.40321
H          2.77667        1.46491        0.18427
H          2.63047        2.01300       -1.47101
H          0.23454        3.89603        1.59783
H          1.37718        2.65381        2.03460
H          2.15885        5.39562        0.91295
H          2.30489        4.92550        2.59157
H          3.92373        3.11122        1.95532
H          4.51264        4.66268        1.40536
H          3.30119       -2.93937       -1.99345
C          4.96318       -1.59312       -1.86751
H          2.49172       -2.48309        1.91634
C          5.26315       -1.64589        2.09526
H          2.95212        0.02193       -1.57841
H          3.66599       -0.88040       -4.22840
H          2.45845       -2.15963       -4.20750
H          4.17189       -2.56474       -4.31208
H          5.23241       -0.57122       -2.13681
H          5.07727       -1.69125       -0.79007
H          5.69130       -2.25731       -2.33601
H          2.57479        0.53959        2.27207
H          3.04366       -0.63963        3.48504
H          4.15719        0.64122        3.02367
H          6.00639       -0.91249        2.41200
H          5.02755       -2.26858        2.95889
H          5.72690       -2.28928        1.34634
Fe        -2.64780       -1.74339        0.16733
C         -2.52933       -2.02573        2.21911
C         -3.53072       -2.87895        1.61247
C         -4.51782       -2.03056        0.97082
C         -4.10980       -0.65286        1.16052
C         -2.88565       -0.64937        1.93588
H         -1.63840       -2.35932        2.75146
H         -3.55774       -3.97037        1.66206
H         -5.41948       -2.36878        0.45450
H         -4.67705        0.22539        0.84657
H         -2.30672        0.22637        2.23121
Pd         0.36641        0.00964        1.13266
