58
-89.86640117
P          1.63810        0.54635        0.98858
C          3.10628        1.51676        0.64858
C          4.30131        0.89067        0.37693
C          5.42764        1.64718        0.10761
C          5.34682        3.02587        0.11152
C          4.14481        3.64919        0.38358
C          3.01998        2.88987        0.65362
H          2.07110        3.36131        0.85683
H          4.34689       -0.18643        0.37232
C          1.90174       -1.19367        0.59774
C          1.92223       -2.17377        1.56354
C          2.07822       -3.49758        1.19567
C          2.21603       -3.83315       -0.13655
C          2.20510       -2.84743       -1.10246
C          2.04975       -1.52511       -0.73037
H          2.03025       -0.74090       -1.47140
H          1.82551       -1.90822        2.60265
C          1.08006        0.84174        2.72117
C         -0.42698        0.77225        2.92394
C         -1.06320       -0.53437        2.45820
P         -1.57920       -0.45345        0.68973
C         -3.24073        0.21850        0.60518
C         -3.45507        1.56641        0.77962
C         -4.74114        2.07166        0.71242
C         -5.80323        1.22213        0.47294
C         -5.58337       -0.13007        0.29932
C         -4.29602       -0.63224        0.36609
H         -4.10684       -1.68491        0.22813
H         -2.61628        2.22193        0.95004
C         -1.48779       -2.05013       -0.13055
C         -1.50963       -2.06823       -1.50636
C         -1.42287       -3.27032       -2.18331
C         -1.32109       -4.44997       -1.47300
C         -1.31235       -4.42932       -0.09200
C         -1.39827       -3.22443        0.58192
H         -1.39522       -3.19845        1.65920
H         -1.59647       -1.13457       -2.03940
Pd        -0.08297        0.82599       -0.53205
Cl         1.38069        1.82554       -1.91245
Cl        -1.80209        1.27222       -1.91618
H         -0.37931       -1.37161        2.59637
H         -1.97028       -0.76982        3.02093
H         -0.65322        0.93976        3.98864
H         -0.90719        1.60789        2.39684
H          1.59320        0.11558        3.35324
H          1.46578        1.82298        3.00887
H          6.36475        1.16073       -0.10792
H          4.08046        4.72486        0.38103
H          2.08888       -4.26774        1.94941
H          2.30939       -3.10641       -2.14319
H         -4.91203        3.12775        0.84179
H         -6.41141       -0.79302        0.10932
H         -1.43367       -3.28458       -3.26069
H         -1.23482       -5.35084        0.46124
H          6.22286        3.61662       -0.10133
H          2.33065       -4.86589       -0.42284
H         -6.80514        1.61571        0.41815
H         -1.25044       -5.38896       -1.99736
