45
-71.81529827
C          0.63574        1.65055        2.92949
P         -0.11337        0.71377        1.55448
P         -0.15132        0.87134       -1.57619
C          0.50467        1.85879       -2.96447
Cl         2.96293       -0.47748        1.46082
H          1.46055        1.08428        3.35278
H         -0.28004        2.05983       -3.68810
Cl         3.05501        0.14045       -1.67822
C         -1.38074        1.70277        0.73571
C         -1.39637        1.77426       -0.63924
C         -2.37560        2.49829       -1.28766
C         -3.33725        3.16531       -0.54916
C         -3.31766        3.10043        0.83074
C         -2.33838        2.36591        1.47601
H         -2.38606        2.53196       -2.36506
H         -4.10280        3.73337       -1.05159
H         -4.06698        3.61924        1.40568
H         -2.31678        2.30296        2.55200
Pd         1.51731        0.33730       -0.05532
H          1.30947        1.31817       -3.45444
H         -0.10305        1.83020        3.70513
H          0.89233        2.80255       -2.59168
C         -1.85986       -3.17800       -2.73999
C         -1.86457       -2.75470       -1.42579
C         -1.34094       -1.51648       -1.10406
C         -0.81691       -0.71306       -2.08875
C         -0.80788       -1.13030       -3.40016
C         -1.33246       -2.36804       -3.72720
H         -2.26605       -4.14303       -2.99559
H         -2.26934       -3.38557       -0.65164
H         -1.32384       -1.17345       -0.08458
H         -0.38982       -0.49218       -4.16129
H         -1.32706       -2.70064       -4.75224
C         -1.74535       -3.31060        2.89957
C         -0.38657       -3.13346        2.72798
C          0.10071       -1.90063        2.33636
C         -0.76834       -0.85620        2.12173
C         -2.12334       -1.02740        2.29182
C         -2.61500       -2.25969        2.68247
H         -2.12813       -4.27146        3.20265
H          0.29250       -3.95356        2.89372
H          1.15592       -1.74335        2.17969
H         -2.79110       -0.20230        2.10537
H         -3.67545       -2.39955        2.81350
H          1.01037        2.60364        2.56719
