111
-148.55684729
P         -2.35928       -2.55097       -0.01551
P         -0.14240       -0.28678       -0.43888
C         -1.67971       -2.23750       -1.66355
C         -0.76750       -1.22155       -1.85025
C         -2.19481       -4.32635        0.46844
C         -1.20233       -4.46926        1.60204
C         -2.10551       -2.98947       -2.73945
H         -2.81136       -3.78915       -2.58247
C         -1.62774       -2.70886       -4.00803
H         -1.96108       -3.29409       -4.84945
C         -0.73225       -1.67384       -4.19738
H         -0.36641       -1.44929       -5.18578
C         -0.30187       -0.92730       -3.11508
H          0.39261       -0.11223       -3.24806
Pd        -1.43299       -0.95876        1.36749
Cl        -3.01707       -1.42626        2.88762
Cl        -0.48125        0.64846        2.62007
C         -3.63711       -4.73149        0.83002
C         -4.20266       -2.37081        0.02770
H         -1.52210       -3.88701        2.46890
H         -1.10453       -5.51033        1.91919
H         -0.21259       -4.10748        1.31181
H         -3.76305       -4.64878        1.91831
H         -3.80804       -5.79270        0.59390
H         -4.43174       -1.83645        0.95897
C         -4.68687       -3.82890        0.12173
C         -4.72873       -1.60076       -1.16506
H         -1.85281       -4.86255       -0.42647
H         -4.87333       -4.20729       -0.89269
H         -5.65822       -3.87677        0.63722
H         -4.50485       -2.12188       -2.09679
H         -5.81248       -1.47407       -1.11209
H         -4.27349       -0.60994       -1.22811
C         -0.83021        4.18998       -0.85336
C          0.43544        3.63546       -1.18296
C          0.60962        2.27013       -1.03209
C         -0.43073        1.46150       -0.65672
C         -1.68776        1.97241       -0.46798
C         -1.93103        3.33053       -0.59241
O         -0.97317        5.59358       -0.70649
C          1.62783        4.45410       -1.70597
H          1.57543        1.82184       -1.19397
H         -2.48230        1.29691       -0.19927
C         -3.38029        3.81760       -0.42717
C          4.30774       -0.98777        0.31010
C          3.50592       -0.34466        1.28585
C          2.15492       -0.19775        1.02707
C          1.60439       -0.59998       -0.16099
C          2.39612       -1.13158       -1.14609
C          3.75791       -1.30081       -0.95915
O          5.64842       -1.34487        0.61427
C          4.07090        0.17241        2.61800
H          1.49896        0.23432        1.76109
H          1.93462       -1.41691       -2.07353
C          4.61413       -1.82218       -2.12446
C          2.69582        4.56178       -0.60447
C          2.23923        3.74086       -2.93276
C          1.21553        5.86331       -2.16525
C         -4.32746        2.90343       -1.23575
C         -3.77106        3.75417        1.05892
C         -3.58049        5.24927       -0.95373
C         -0.68123        6.04010        0.60732
H          3.56370        5.11858       -0.95681
H          2.30507        5.07064        0.27456
H          3.03504        3.57430       -0.29266
H          2.66382        2.77340       -2.66967
H          1.48242        3.57944       -3.69992
H          3.03930        4.33755       -3.37016
H          0.40976        5.80854       -2.89643
H          0.86650        6.46472       -1.32936
H          2.05407        6.38890       -2.62150
H         -5.34948        3.28044       -1.20682
H         -4.01677        2.85348       -2.27896
H         -4.34658        1.88984       -0.83956
H         -3.66921        2.74037        1.44513
H         -3.13708        4.40199        1.66089
H         -4.80474        4.06685        1.20388
H         -3.01885        5.96903       -0.36308
H         -3.24353        5.32930       -1.98665
H         -4.63022        5.53920       -0.91449
H          0.34084        5.77627        0.87378
H         -0.79834        7.12300        0.65355
H         -1.35949        5.57382        1.31979
C          5.78919       -2.64488        1.17311
C          3.25588        1.38602        3.12185
C          3.98901       -0.94349        3.67048
C          5.52661        0.64606        2.45680
C          6.03946       -1.24259       -2.06742
C          4.66383       -3.35644       -2.07420
C          4.00920       -1.39158       -3.48057
H          3.18017        2.15055        2.34905
H          2.24860        1.09995        3.42065
H          3.73088        1.83633        3.99306
H          4.56557       -1.81422        3.36744
H          4.37290       -0.60290        4.63172
H          2.95677       -1.26263        3.81302
H          6.18254       -0.17499        2.17844
H          5.59817        1.40851        1.68183
H          5.90593        1.07003        3.38624
H          6.01051       -0.15349       -2.05730
H          6.56579       -1.57029       -1.17442
H          6.62606       -1.55849       -2.92973
H          5.10484       -3.70628       -1.14388
H          3.66083       -3.77675       -2.14440
H          5.25552       -3.75496       -2.89795
H          3.83987       -0.31526       -3.50515
H          3.06286       -1.89289       -3.67818
H          4.68090       -1.64317       -4.30102
H          4.81638       -3.13120        1.25566
H          6.44370       -3.24533        0.54152
H          6.24355       -2.57104        2.16098
