64
-97.22236104
Cl        -1.33268       -0.50473       -2.80952
Cl         1.87969       -0.71585       -2.93310
P          1.96665       -0.66100        0.34123
C          2.08501       -2.40925        0.95179
C          3.78308       -0.31101        0.14181
P         -1.26344       -0.29164        0.36966
C          1.19810        0.47224        1.55333
C         -0.24390        0.62529        1.58929
C         -0.56713        1.61964        2.60196
C          0.68474        2.11413        3.14763
C          1.77683        1.39343        2.51708
H         -1.56850        1.92426        2.91127
H          0.78578        2.86587        3.93362
Pd         0.32936       -0.71850       -1.32006
H          2.84196        1.52372        2.71768
C         -5.15406        1.76149       -0.84790
C         -4.86701        0.48034       -1.27439
C         -3.68168       -0.12303       -0.89341
C         -2.78659        0.55419       -0.09676
C         -3.07841        1.82736        0.33720
C         -4.26075        2.43604       -0.04005
H         -6.07586        2.23461       -1.14492
H         -5.56229       -0.04895       -1.90505
H         -3.44447       -1.12251       -1.22221
H         -2.37883        2.34585        0.96769
H         -4.48348        3.43552        0.29599
C         -2.45335       -4.38081        1.94747
C         -2.09131       -4.23573        0.62229
C         -1.73315       -2.99047        0.13908
C         -1.73441       -1.90542        0.98490
C         -2.10482       -2.04022        2.30294
C         -2.46382       -3.28507        2.78871
H         -2.73247       -5.35098        2.32510
H         -2.08996       -5.08948       -0.03529
H         -1.46403       -2.85575       -0.89632
H         -2.10417       -1.17322        2.94479
H         -2.75010       -3.39835        3.82143
C          4.15010        0.55658       -1.04235
H          4.08823        0.17463        1.07814
C          4.38840       -1.72302        0.06819
H          5.44993       -1.70069        0.35855
C          3.59263       -2.72528        0.94178
H          4.37563       -2.05622       -0.97894
C          1.45817       -2.53723        2.32318
H          1.55241       -3.02452        0.21438
H          3.96876       -2.68520        1.97289
H          3.76583       -3.75931        0.60864
H          0.40742       -2.24665        2.30978
H          1.52113       -3.56118        2.69874
H          1.96395       -1.88678        3.03955
H          3.77715        0.12550       -1.97084
H          3.74063        1.56171       -0.95160
H          5.23350        0.65137       -1.13992
Fe         0.64014        2.36096        1.10295
C          1.97027        3.40420       -0.03690
C          1.01599        4.31175        0.57688
C         -0.31425        3.88483        0.17787
C         -0.17795        2.74282       -0.70963
C          1.23438        2.44981       -0.84739
H          3.05667        3.47336        0.05332
H          1.25488        5.15852        1.22434
H         -1.24989        4.38209        0.44479
H         -0.98426        2.21902       -1.22755
H          1.65021        1.67617       -1.49635
