171
-217.84332315
P         -1.62091        0.38143       -0.49924
P          1.60209       -0.34535       -0.29050
C         -0.84519        1.40512       -1.75766
C          1.03179       -1.25015       -1.73017
C          0.05541        0.85828       -2.66537
C          0.73519        1.72038       -3.54814
C          0.45595        3.07627       -3.52128
C         -0.47020        3.59363       -2.64134
C         -1.11162        2.75311       -1.75328
C          1.30913       -2.59294       -1.80922
C          0.84192       -3.33648       -2.87516
C          0.07712       -2.72838       -3.84789
C         -0.21381       -1.37550       -3.78523
C          0.29196       -0.61060       -2.71718
Cl         1.34994        0.25353        2.92232
Cl        -1.82942       -0.41577        2.65615
C         -1.02671       -0.74350       -4.85993
C          1.75381        1.20915       -4.50656
H         -0.68628        4.64953       -2.63942
H         -1.82731        3.15331       -1.05409
H          1.89588       -3.06133       -1.03548
H          1.07050       -4.38754       -2.94311
H          0.97565        3.72943       -4.20197
H         -0.30024       -3.30684       -4.67422
C         -3.72731       -3.36180       -1.91889
C         -2.75063       -3.46666       -0.93542
C         -2.08888       -2.30739       -0.55406
C         -2.41149       -1.09975       -1.12137
C         -3.38582       -1.01035       -2.08482
C         -4.06822       -2.14665       -2.50328
H         -4.24284       -4.24938       -2.23044
H         -1.32121       -2.34260        0.19973
H         -3.62646       -0.04457       -2.49716
C         -4.47735        2.70939        2.14766
C         -3.14771        3.10689        2.07877
C         -2.30676        2.40516        1.22596
C         -2.77652        1.34305        0.49348
C         -4.08953        0.95360        0.58674
C         -4.97115        1.63663        1.41548
H         -5.14927        3.23453        2.79991
H         -1.26667        2.67304        1.14829
H         -4.41428        0.09654        0.02424
C          4.20368       -2.92405        2.39201
C          2.85221       -3.23090        2.27545
C          2.07909       -2.45342        1.42357
C          2.63507       -1.40203        0.73836
C          3.96840       -1.10791        0.87284
C          4.78421       -1.86764        1.69909
H          4.81604       -3.51462        3.04567
H          1.02641       -2.65320        1.31460
H          4.37560       -0.26585        0.34124
C          3.96763        3.40446       -1.16586
C          2.90460        3.47451       -0.27311
C          2.17150        2.31780       -0.04667
C          2.49357        1.15170       -0.69390
C          3.54397        1.09723       -1.57645
C          4.30857        2.23068       -1.82782
H          4.56441        4.27983       -1.33960
H          1.35653        2.31900        0.65704
H          3.77081        0.15697       -2.04983
Pd        -0.11905       -0.03556        1.24911
C         -2.35603       -4.63253        1.25956
C         -2.38211       -4.80237       -0.27304
C         -0.99425       -5.23725       -0.76901
C         -3.39946       -5.90807       -0.61557
H         -2.13969       -5.57987        1.75306
H         -1.59526       -3.91910        1.57210
H         -3.31888       -4.27449        1.62317
H         -0.24592       -4.48083       -0.53775
H         -0.68598       -6.17366       -0.30443
H         -1.00100       -5.38139       -1.84909
H         -3.15542       -6.83282       -0.09276
H         -4.40737       -5.61573       -0.32133
H         -3.40003       -6.12797       -1.68284
C         -5.83849       -3.38287       -3.85821
C         -5.19314       -2.01929       -3.54254
C         -4.62579       -1.43906       -4.84951
C         -6.28424       -1.08250       -2.99309
H         -5.10527       -4.07959       -4.26417
H         -6.28025       -3.82458       -2.96514
H         -6.63201       -3.27260       -4.59726
H         -4.17338       -0.46181       -4.68596
H         -3.86651       -2.10130       -5.26356
H         -5.41056       -1.32170       -5.59667
H         -6.69202       -1.47496       -2.06192
H         -5.88816       -0.08704       -2.79585
H         -7.10476       -0.97973       -3.70301
C         -2.33319        5.46575        1.93885
C         -2.59201        4.28549        2.89045
C         -1.27399        3.86891        3.57467
C         -3.57816        4.73563        3.98575
H         -3.26056        5.79189        1.46833
H         -1.90697        6.31448        2.47341
H         -1.64200        5.18351        1.14636
H         -0.50011        3.63491        2.84585
H         -0.89413        4.66895        4.20970
H         -1.42539        2.98652        4.19603
H         -4.50164        5.11972        3.55333
H         -3.82511        3.90844        4.65108
H         -3.14609        5.53236        4.59118
C         -6.79810        0.04995        0.63131
C         -6.43702        1.21057        1.57811
C         -7.35843        2.40185        1.25589
C         -6.66768        0.74969        3.02855
H         -7.84493       -0.23164        0.74423
H         -6.64275        0.33714       -0.40788
H         -6.19547       -0.83345        0.84178
H         -8.40708        2.11578        1.33565
H         -7.18893        3.23304        1.93910
H         -7.18279        2.76026        0.24173
H         -6.46939        1.55511        3.73482
H         -7.69630        0.42093        3.17553
H         -6.00761       -0.08140        3.27638
C          1.56086       -5.37424        2.11025
C          2.17922       -4.35194        3.08004
C          1.07354       -3.74049        3.96238
C          3.18247       -5.08529        3.99039
H          1.08847       -6.19284        2.65297
H          0.80205       -4.90919        1.48421
H          2.32314       -5.79631        1.45566
H          0.58438       -4.50642        4.56369
H          1.49015       -2.99350        4.63758
H          0.30909       -3.25149        3.35988
H          2.68646       -5.87524        4.55427
H          3.97775       -5.54737        3.40577
H          3.63278       -4.40080        4.70903
C          6.93338       -1.58045        0.44074
C          6.26793       -1.49485        1.82715
C          7.01381       -2.43979        2.78827
C          6.38192       -0.05643        2.36684
H          7.99282       -1.33173        0.49998
H          6.84450       -2.58700        0.03254
H          6.46892       -0.89216       -0.26430
H          8.06523       -2.16269        2.86416
H          6.58841       -2.39535        3.79066
H          6.96903       -3.47087        2.43805
H          7.42535        0.23269        2.49086
H          5.91649        0.65936        1.69008
H          5.88887        0.03092        3.33476
C          1.10269        5.16866        0.10570
C          2.53471        4.75585        0.48604
C          3.48612        5.91869        0.14611
C          2.61281        4.48706        2.00103
H          0.79455        6.06136        0.64962
H          1.03607        5.38239       -0.96051
H          0.39387        4.37374        0.33140
H          3.20820        6.81812        0.69548
H          4.51454        5.67435        0.41153
H          3.44974        6.15746       -0.91666
H          2.35951        5.38132        2.57011
H          1.92626        3.69652        2.30051
H          3.61855        4.17839        2.28522
C          5.68488        0.84195       -3.45850
C          5.54663        2.19632       -2.73539
C          6.80141        2.41872       -1.87127
C          5.44694        3.30727       -3.79810
H          5.81888        0.02753       -2.74699
H          4.80574        0.62840       -4.06549
H          6.55112        0.84374       -4.11997
H          7.70547        2.38679       -2.47907
H          6.76797        3.38578       -1.37051
H          6.88226        1.64874       -1.10417
H          5.42173        4.29560       -3.34122
H          6.30257        3.27753       -4.47256
H          4.54392        3.19264       -4.39632
H         -1.63801        0.06886       -4.46415
H          2.02561        0.17504       -4.29121
H         -1.69535       -1.46917       -5.32337
H         -0.38819       -0.33513       -5.64390
H          2.66458        1.80584       -4.45301
H          1.38451        1.25653       -5.53190
