171
-217.84591506
P         -1.57809        0.35447       -0.45767
P          1.64930       -0.36863       -0.24427
C         -0.79668        1.34435       -1.73167
C          1.04225       -1.32352       -1.64045
C          0.06367        0.75031       -2.64733
C          0.71812        1.56709       -3.58916
C          0.46080        2.92810       -3.59898
C         -0.41608        3.49307       -2.69682
C         -1.03844        2.69562       -1.75626
C          1.27988       -2.67666       -1.65009
C          0.75612       -3.46817       -2.65295
C         -0.02289       -2.89573       -3.63594
C         -0.27440       -1.53387       -3.64583
C          0.28450       -0.72222       -2.63971
Cl         1.32585        0.25746        3.00460
Cl        -1.71858       -0.55808        2.76559
C         -1.13481       -0.96050       -4.71737
C          1.65925        0.98823       -4.58705
H         -0.61346        4.55222       -2.72348
H         -1.71764        3.12701       -1.03847
H          1.87675       -3.11818       -0.86878
H          0.94837       -4.52861       -2.66040
H          0.95680        3.54779       -4.32690
H         -0.45011       -3.51046       -4.41027
C         -3.75902       -3.27942       -2.02203
C         -2.78518       -3.45308       -1.04663
C         -2.12080       -2.32387       -0.58589
C         -2.40915       -1.08855       -1.10920
C         -3.35840       -0.93481       -2.08914
C         -4.06167       -2.03596       -2.56329
H         -4.31360       -4.13719       -2.35496
H         -1.37944       -2.39607        0.19069
H         -3.55271        0.05438       -2.46788
C         -4.47790        2.72167        2.11048
C         -3.12186        3.02143        2.18346
C         -2.25400        2.31855        1.35804
C         -2.72544        1.33975        0.51892
C         -4.06558        1.04910        0.46934
C         -4.97318        1.74047        1.25918
H         -5.16273        3.25604        2.74016
H         -1.19569        2.51476        1.39320
H         -4.40743        0.25981       -0.17681
C          4.39119       -2.76602        2.45921
C          3.06113       -3.15346        2.34442
C          2.24632       -2.42882        1.48526
C          2.74159       -1.35154        0.79381
C          4.05413       -0.97407        0.93006
C          4.91103       -1.68162        1.76304
H          5.04335       -3.31171        3.11475
H          1.20920       -2.69471        1.36865
H          4.40106       -0.11096        0.39073
C          3.77966        3.50060       -1.20479
C          2.75193        3.51487       -0.26953
C          2.08385        2.32227       -0.02674
C          2.45000        1.17174       -0.67990
C          3.47643        1.17034       -1.59176
C          4.16434        2.34486       -1.87384
H          4.31038        4.41022       -1.41319
H          1.27929        2.28266        0.68682
H          3.74176        0.24178       -2.06802
Pd        -0.08951       -0.11477        1.28109
C         -3.73775       -5.33585        0.29909
C         -2.50275       -4.85056       -0.47965
C         -1.29137       -4.83735        0.47273
C         -2.19841       -5.82413       -1.63397
H         -4.61207       -5.39645       -0.34823
H         -3.56693       -6.32382        0.72630
H         -3.97181       -4.65065        1.11370
H         -1.48019       -4.20850        1.34242
H         -1.07248       -5.84150        0.83548
H         -0.40315       -4.46576       -0.03715
H         -1.35392       -5.46930       -2.22361
H         -1.95118       -6.81488       -1.25304
H         -3.05182       -5.93011       -2.30229
C         -6.53480       -2.19040       -2.88632
C         -5.19620       -1.89982       -3.58853
C         -4.98787       -2.90254       -4.73985
C         -5.25147       -0.48052       -4.18748
H         -6.55280       -3.20089       -2.47909
H         -6.69626       -1.49602       -2.06195
H         -7.36982       -2.09243       -3.57979
H         -4.02620       -2.74172       -5.22542
H         -5.01557       -3.93152       -4.38422
H         -5.76682       -2.79432       -5.49444
H         -5.46931        0.26291       -3.42116
H         -4.30669       -0.21908       -4.66341
H         -6.03423       -0.40969       -4.94260
C         -3.65009        4.69021        4.03458
C         -2.54854        4.05003        3.16858
C         -1.83489        5.16375        2.38312
C         -1.54280        3.34518        4.09989
H         -4.37740        5.21788        3.41788
H         -4.17451        3.93662        4.62180
H         -3.22326        5.41212        4.73077
H         -2.52495        5.65805        1.69959
H         -1.42529        5.91709        3.05581
H         -1.01318        4.76044        1.79521
H         -2.02670        2.53507        4.64487
H         -0.71367        2.91609        3.53890
H         -1.12736        4.04262        4.82683
C         -6.63690       -0.10467        1.58290
C         -6.46143        1.37194        1.18050
C         -6.95923        1.57670       -0.26263
C         -7.31621        2.24180        2.12166
H         -7.68731       -0.39408        1.55851
H         -6.09348       -0.76653        0.90937
H         -6.26188       -0.27505        2.59183
H         -6.82325        2.61234       -0.57348
H         -6.41512        0.94389       -0.96262
H         -8.01823        1.33397       -0.34857
H         -8.36944        1.97116        2.04777
H         -7.01446        2.10911        3.16044
H         -7.22838        3.29790        1.86723
C          1.19187       -3.88583        3.85366
C          2.46998       -4.33908        3.11951
C          3.45923       -4.88560        4.16673
C          2.12862       -5.46387        2.12712
H          0.41972       -3.56642        3.15544
H          0.77828       -4.69614        4.45358
H          1.40665       -3.04866        4.51740
H          3.00923       -5.69894        4.73592
H          4.35908       -5.27709        3.69290
H          3.74957       -4.10752        4.87252
H          1.42102       -5.11950        1.37476
H          3.02432       -5.80532        1.60858
H          1.68678       -6.31820        2.63961
C          7.28750       -2.46834        1.57963
C          6.38100       -1.27945        1.94825
C          6.61366       -0.88197        3.41703
C          6.75951       -0.08368        1.05113
H          8.33961       -2.20162        1.67861
H          7.10023       -3.32595        2.22458
H          7.11360       -2.77938        0.54967
H          6.40525       -1.71357        4.08918
H          7.64570       -0.57144        3.57907
H          5.96292       -0.05416        3.69825
H          7.80869        0.18126        1.18118
H          6.60678       -0.32091       -0.00161
H          6.16562        0.79644        1.29731
C          2.10514        4.49203        1.96212
C          2.32634        4.79395        0.46578
C          1.02003        5.30994       -0.15745
C          3.40001        5.89440        0.35570
H          1.85789        5.40091        2.51039
H          1.28964        3.78736        2.11470
H          3.00422        4.06466        2.40539
H          0.24014        4.55192       -0.10285
H          0.66474        6.20311        0.35611
H          1.16848        5.55975       -1.20768
H          3.11880        6.76870        0.94272
H          4.36139        5.53892        0.72626
H          3.52674        6.22317       -0.67535
C          5.09523        3.44359       -3.93425
C          5.35374        2.38678       -2.84379
C          5.57907        1.02356       -3.52655
C          6.62696        2.75503       -2.05997
H          5.00202        4.44131       -3.50739
H          5.91246        3.46704       -4.65498
H          4.17550        3.22566       -4.47531
H          6.41438        1.07426       -4.22484
H          5.81052        0.25079       -2.79373
H          4.69805        0.71417       -4.08763
H          7.49635        2.78022       -2.71671
H          6.53303        3.73424       -1.59172
H          6.81917        2.02608       -1.27318
H         -2.03379       -1.56238       -4.85290
H          1.15435        0.80109       -5.53562
H         -0.60436       -0.93143       -5.67014
H         -1.45345        0.05430       -4.47574
H          2.07914        0.04464       -4.23573
H          2.48988        1.66726       -4.78044
