105
-153.07194477
Cl        -0.83816        2.07995       -2.86593
Pd         0.08504        1.53724       -0.88532
P          1.34984        0.70950        0.88205
N          0.67241       -0.54428        1.90813
C          0.04304       -1.75887        1.67699
C         -0.11192       -2.33817        0.39377
C         -0.86634       -3.52103        0.25173
C         -1.01338       -4.12172       -1.12680
C         -1.57102       -5.55369       -1.14429
C         -2.73335       -5.70478       -0.15865
C         -2.27768       -5.37830        1.27161
C         -1.44354       -4.12618        1.36994
C         -1.23540       -3.56881        2.62461
C         -0.50857       -2.41653        2.77614
H         -0.38459       -1.98327        3.75341
H         -1.67072       -4.04674        3.48589
H         -3.14739       -5.27699        1.93349
H         -3.54380       -5.02429       -0.44810
H         -1.88257       -5.83886       -2.15906
H         -1.66124       -3.46586       -1.72010
C          0.67017       -1.86705       -0.77371
C          0.01774       -1.23593       -1.86647
C          0.75167       -1.00441       -3.03305
C          2.06518       -1.38526       -3.13017
C          2.70756       -2.04082       -2.08654
C          4.12620       -2.51063       -2.30937
C          4.78721       -3.18453       -1.09406
C          3.77678       -4.00463       -0.28720
C          2.62397       -3.11393        0.19670
C          2.00426       -2.29384       -0.90761
H          1.84950       -3.72976        0.67040
H          4.26619       -4.50771        0.55883
H          5.22311       -2.41864       -0.44287
H          4.72831       -1.65556       -2.64130
H          2.61248       -1.19362       -4.03761
H          0.27329       -0.49900       -3.85344
N         -1.31928       -0.82280       -1.80741
P         -1.83367        0.18849       -0.45383
C         -2.79906       -0.73680        0.73926
C         -3.57891       -1.76920        0.27687
C         -4.38657       -2.46771        1.15638
C         -4.42441       -2.12492        2.50111
C         -3.63863       -1.06934        2.94468
C         -2.83524       -0.36932        2.06307
H         -2.23049        0.45338        2.40515
H         -3.65569       -0.80243        3.98755
C         -5.25485       -2.90475        3.45965
H         -4.98945       -3.28664        0.80333
H         -3.54641       -2.02586       -0.77015
C         -2.95380        1.48237       -1.00494
C         -2.93331        2.71001       -0.38571
C         -3.80064        3.70275       -0.80322
C         -4.69375        3.47058       -1.84049
C         -4.71385        2.21656       -2.43631
C         -3.84455        1.22488       -2.01881
H         -3.86151        0.24935       -2.47758
H         -5.41392        2.02149       -3.23063
C         -5.64049        4.53401       -2.27662
H         -3.78715        4.66737       -0.32527
H         -2.23735        2.88987        0.41832
H         -1.65253       -0.34045       -2.63215
H          0.87991       -0.29650        2.86809
C          1.30737        2.20915        1.87182
C          2.43701        2.96349        2.08212
C          2.35665        4.12900        2.82157
C          1.14490        4.54471        3.35728
C          0.01273        3.77595        3.12297
C          0.09648        2.61010        2.38357
H         -0.77964        2.01278        2.19280
H         -0.93545        4.09802        3.51843
C          1.05290        5.81604        4.12716
H          3.23655        4.72848        2.98132
H          3.37485        2.64630        1.65661
C          3.07909        0.36929        0.55218
C          3.66523        0.72114       -0.64020
C          5.01831        0.51387       -0.83118
C          5.79613       -0.04458        0.17355
C          5.19146       -0.37653        1.37846
C          3.83647       -0.16788        1.56621
H          3.36486       -0.41388        2.50459
H          5.78806       -0.79646        2.17011
C          7.25725       -0.24969       -0.02692
H          5.48136        0.79488       -1.76162
H          3.06824        1.18210       -1.40897
Cl         1.71473        3.05653       -1.18081
H         -1.69759       -6.21660        1.67546
H         -0.77381       -6.25739       -0.87352
H         -3.16300       -6.71514       -0.21281
H         -0.03781       -4.09650       -1.62845
H          3.37477       -4.80803       -0.91722
H          2.97809       -2.43879        0.98235
H          4.12439       -3.20836       -3.15548
H          5.63266       -3.81225       -1.40914
H         -4.66880       -3.70197        3.91908
H         -5.63876       -2.26661        4.25679
H         -6.11035       -3.36138        2.96000
H         -6.55496        4.50630       -1.68257
H         -5.19660        5.52438       -2.16634
H         -5.91582        4.41066       -3.32493
H          0.85946        6.65814        3.46133
H          0.24681        5.77500        4.86106
H          1.98004        6.01831        4.66527
H          7.48017       -0.49658       -1.06597
H          7.81387        0.65195        0.23202
H          7.63013       -1.06565        0.59383
