105
-153.06953457
Cl        -1.08474        2.29212       -2.71819
Pd         0.10316        1.40464       -1.02198
P          1.39890        0.75713        0.79356
N          0.54654       -0.40982        1.79168
C          0.01534       -1.67765        1.59312
C         -0.10466       -2.30669        0.32879
C         -0.77592       -3.54237        0.22813
C         -0.90351       -4.18509       -1.13373
C         -1.37468       -5.64787       -1.11057
C         -2.51053       -5.84554       -0.10252
C         -2.05170       -5.46017        1.31179
C         -1.30367       -4.15242        1.36765
C         -1.13351       -3.54193        2.60277
C         -0.49082       -2.33656        2.71361
H         -0.39820       -1.86450        3.67633
H         -1.53392       -4.02046        3.48052
H         -2.91369       -5.40460        1.98905
H         -3.36453       -5.22051       -0.39210
H         -1.68428       -5.97416       -2.11348
H         -1.59741       -3.58412       -1.73316
C          0.59485       -1.80158       -0.87672
C         -0.14674       -1.21651       -1.94372
C          0.50869       -0.98328       -3.15822
C          1.83673       -1.28750       -3.31273
C          2.56780       -1.87222       -2.28538
C          4.00429       -2.24581       -2.53650
C          4.45094       -3.44963       -1.69515
C          4.13977       -3.20889       -0.21479
C          2.64296       -2.93602        0.01967
C          1.94514       -2.14760       -1.06678
H          2.11625       -3.89081        0.13581
H          4.72511       -2.35212        0.13525
H          5.51989       -3.65890       -1.84372
H          4.63780       -1.37956       -2.31407
H          2.32740       -1.07977       -4.24841
H         -0.03834       -0.52288       -3.96207
N         -1.48202       -0.81241       -1.79779
P         -1.86750        0.18531       -0.38821
C         -2.81728       -0.76773        0.79805
C         -2.92414       -0.36631        2.10805
C         -3.70628       -1.09689        2.98398
C         -4.39147       -2.22419        2.54959
C         -4.30022       -2.58926        1.21336
C         -3.51355       -1.85990        0.34027
H         -3.43122       -2.13783       -0.69830
H         -4.84476       -3.44885        0.86218
C         -5.23795       -3.00611        3.49220
H         -3.78814       -0.79553        4.01429
H         -2.39744        0.51280        2.44030
C         -2.96457        1.54649       -0.79366
C         -2.81305        2.74069       -0.12894
C         -3.65945        3.79579       -0.41669
C         -4.66911        3.65426       -1.35938
C         -4.80661        2.43758       -2.01470
C         -3.95882        1.38305       -1.72732
H         -4.06941        0.43389       -2.22651
H         -5.57992        2.32223       -2.75481
C         -5.55990        4.79993       -1.69289
H         -3.53670        4.73906        0.08755
H         -2.02865        2.84647        0.60422
H         -1.87926       -0.32988       -2.59418
H          0.70956       -0.13091        2.75122
C          1.28872        2.32751        1.65506
C          0.15357        2.60207        2.37995
C          0.01351        3.82951        3.00165
C          1.00843        4.79198        2.89181
C          2.14930        4.49332        2.15842
C          2.28540        3.26626        1.53529
H          3.15914        3.04003        0.94579
H          2.92837        5.23143        2.07269
C          0.87209        6.10760        3.57606
H         -0.87166        4.04741        3.57451
H         -0.61950        1.85506        2.45213
C          3.14171        0.31873        0.79461
C          3.96417        0.61373       -0.26599
C          5.31398        0.32784       -0.19777
C          5.85474       -0.25583        0.93936
C          5.01535       -0.52916        2.01099
C          3.66352       -0.24225        1.93676
H          3.01160       -0.44991        2.76999
H          5.42615       -0.96805        2.90409
C          7.31188       -0.55106        1.01901
H          5.95931        0.56470       -1.02640
H          3.54978        1.09318       -1.13541
Cl         1.97410        2.35566       -1.83050
H         -1.40793       -6.24848        1.71981
H         -0.53270       -6.29657       -0.83803
H         -2.88010       -6.88051       -0.12740
H          0.06187       -4.11345       -1.65023
H          4.47885       -4.05837        0.39454
H          2.50041       -2.41380        0.97325
H          4.14728       -2.44972       -3.60530
H          3.92183       -4.34825       -2.03661
H         -5.30712       -4.05072        3.18524
H         -4.82412       -2.98541        4.50139
H         -6.24925       -2.59937        3.53375
H         -5.70230        5.45230       -0.83021
H         -5.13467        5.39745       -2.50036
H         -6.54404        4.45406       -2.01207
H          1.34532        6.08420        4.55864
H          1.34116        6.90281        2.99494
H         -0.17679        6.37394        3.71381
H          7.86385        0.31719        1.38142
H          7.50918       -1.38283        1.69679
H          7.71193       -0.82047        0.04043
