111
-148.55381102
P         -2.66367       -1.92175       -0.28684
P          0.15880       -0.50948       -0.48122
C         -1.85159       -1.73854       -1.90260
C         -0.59896       -1.16862       -1.97444
C         -3.75869       -3.41646       -0.27287
C         -3.42612       -4.34428        0.87444
C         -2.48123       -2.15422       -3.05906
H         -3.46936       -2.58039       -3.00522
C         -1.84811       -2.00593       -4.28119
H         -2.33975       -2.33137       -5.18343
C         -0.58985       -1.43885       -4.34725
H         -0.09883       -1.32041       -5.29910
C          0.03505       -1.01300       -3.18908
H          1.00884       -0.54983       -3.22248
Pd        -0.98618       -1.51577        1.25856
Cl        -2.40216       -2.16384        2.87055
Cl         0.71249       -1.04953        2.64975
C         -5.17411       -2.80573       -0.19408
C         -3.90336       -0.59278        0.06323
H         -4.04275       -5.24597        0.85362
H         -2.37746       -4.64937        0.84857
H         -3.60246       -3.85048        1.83071
H         -5.83510       -3.48356        0.36556
H         -5.60839       -2.73559       -1.20223
H         -3.51866       -0.01265        0.91354
C         -5.16076       -1.39386        0.45800
C         -4.09457        0.30041       -1.14315
H         -3.60184       -3.93288       -1.22915
H         -6.06092       -0.82772        0.17715
H         -5.20538       -1.49984        1.55205
H         -4.45393       -0.27728       -1.99680
H         -4.82210        1.09155       -0.94651
H         -3.15511        0.77189       -1.43838
C         -1.43634        3.70599        0.15702
C         -0.94069        2.96224        1.25806
C         -0.45695        1.68857        1.01999
C         -0.40447        1.17543       -0.24841
C         -0.77171        1.93340       -1.32868
C         -1.25133        3.22198       -1.16394
O         -2.15690        4.90940        0.37903
C         -0.97227        3.48654        2.70108
H         -0.12541        1.06247        1.82996
H         -0.69422        1.49589       -2.30857
C         -1.59085        4.05682       -2.40827
C          4.70692       -0.63239       -0.42475
C          4.03230        0.57569       -0.73590
C          2.64781        0.57109       -0.73133
C          1.94388       -0.58233       -0.50347
C          2.58966       -1.77451       -0.30891
C          3.97382       -1.84088       -0.30066
O          6.10938       -0.62422       -0.20041
C          4.77095        1.88937       -1.03580
H          2.09458        1.48041       -0.89115
H          1.99256       -2.65539       -0.14656
C          4.65497       -3.20635       -0.11855
C         -0.82861        5.01848        2.74097
C         -2.29121        3.05863        3.36287
C          0.20280        2.90146        3.51781
C         -3.04358        3.78365       -2.82659
C         -1.39009        5.55941       -2.13996
C         -0.65892        3.68142       -3.58304
C         -3.55953        4.72127        0.52011
H         -0.78711        5.38165        3.76754
H          0.08293        5.33154        2.23297
H         -1.66724        5.50855        2.25280
H         -2.34169        3.40613        4.39435
H         -3.14859        3.46202        2.82910
H         -2.38498        1.97276        3.36727
H          1.15107        3.07122        3.00852
H          0.26166        3.36886        4.50040
H          0.08840        1.83086        3.68057
H         -3.31281        4.36842       -3.70578
H         -3.18439        2.73038       -3.06759
H         -3.73795        4.03690       -2.02890
H         -1.56608        6.14563       -3.04155
H         -2.07281        5.92048       -1.37486
H         -0.37367        5.75596       -1.80042
H         -0.85090        2.67224       -3.94438
H         -0.80763        4.35626       -4.42569
H          0.38692        3.74525       -3.28335
H         -3.81430        3.66560        0.41715
H         -3.88008        5.07765        1.49891
H         -4.08430        5.29776       -0.24154
C          6.47685       -0.38894        1.15319
C          6.12119        1.62275       -1.72522
C          3.94210        2.77409       -1.99569
C          4.98700        2.66027        0.27540
C          6.01097       -3.25411       -0.84613
C          4.84708       -3.48034        1.38082
C          3.78472       -4.33418       -0.71833
H          6.79546        1.06874       -1.07701
H          5.97893        1.04027       -2.63486
H          6.61528        2.55619       -1.99362
H          3.03591        3.14721       -1.52059
H          4.51681        3.64386       -2.31320
H          3.65765        2.21712       -2.88808
H          5.58506        2.08445        0.97753
H          5.49813        3.60527        0.09333
H          4.03305        2.87896        0.75490
H          6.46167       -4.24336       -0.77050
H          5.88806       -3.01706       -1.90238
H          6.71384       -2.54028       -0.42418
H          5.47692       -2.72377        1.84241
H          3.88845       -3.47333        1.89907
H          5.31288       -4.45181        1.54409
H          4.31994       -5.28341       -0.70662
H          3.52062       -4.11175       -1.75189
H          2.86584       -4.47919       -0.15231
H          7.09443        0.50694        1.21445
H          5.58744       -0.26107        1.77160
H          7.06083       -1.23050        1.52544
