171
-217.84583599
P         -1.56154        0.36936       -0.41013
P          1.60895       -0.35989       -0.27016
C         -0.81177        1.39163       -1.68359
C          1.01577       -1.26627       -1.70361
C          0.03987        0.84003       -2.63373
C          0.68387        1.69836       -3.54597
C          0.41682        3.05653       -3.50227
C         -0.45705        3.57959       -2.57311
C         -1.06131        2.74206       -1.65624
C          1.27365       -2.61355       -1.77209
C          0.78106       -3.36292       -2.82240
C          0.00950       -2.75622       -3.79058
C         -0.26336       -1.39943       -3.73971
C          0.26875       -0.62912       -2.68751
Cl         1.48485        0.30732        2.92247
Cl        -1.75637       -0.48492        2.74548
C         -1.10301       -0.78264       -4.80335
C          1.63900        1.17466       -4.56109
H         -0.66365        4.63722       -2.55807
H         -1.73217        3.14403       -0.91424
H          1.86377       -3.08204       -1.00116
H          0.99322       -4.41801       -2.88044
H          0.90486        3.70732       -4.20813
H         -0.39180       -3.33919       -4.60241
C         -3.65325       -3.36445       -1.86614
C         -2.72606       -3.47400       -0.83652
C         -2.06583       -2.32009       -0.43744
C         -2.34127       -1.11572       -1.03544
C         -3.26186       -1.02251       -2.04966
C         -3.94083       -2.15402       -2.48609
H         -4.18282       -4.24076       -2.18874
H         -1.33706       -2.35596        0.35350
H         -3.45264       -0.05666       -2.48589
C         -4.58279        2.75085        1.99679
C         -3.23100        3.03060        2.15883
C         -2.32086        2.31031        1.39537
C         -2.75417        1.33652        0.52976
C         -4.09202        1.06268        0.39599
C         -5.03814        1.76957        1.12410
H         -5.29325        3.31076        2.57525
H         -1.26332        2.48820        1.48652
H         -4.40297        0.27979       -0.27306
C          4.32438       -2.90132        2.33265
C          2.97622       -3.23249        2.24827
C          2.16795       -2.46465        1.42083
C          2.68830       -1.40238        0.72448
C          4.01888       -1.08426        0.82678
C          4.86828       -1.83158        1.63027
H          4.96326       -3.48286        2.96880
H          1.11605       -2.68145        1.33938
H          4.39661       -0.23167        0.29014
C          3.84281        3.47184       -1.14508
C          2.80225        3.49692       -0.22408
C          2.10654        2.31661       -0.00235
C          2.44880        1.16860       -0.67181
C          3.47935        1.15814       -1.57885
C          4.20185        2.31828       -1.83257
H          4.40671        4.36792       -1.32301
H          1.30123        2.28678        0.71136
H          3.72252        0.23218       -2.07179
Pd        -0.06331       -0.08320        1.33345
C         -3.45887       -5.88375       -0.47760
C         -2.39823       -4.81220       -0.15833
C         -2.34948       -4.62804        1.37239
C         -1.03092       -5.29990       -0.66245
H         -3.47013       -6.12574       -1.53996
H         -3.25088       -6.80675        0.06355
H         -4.45385       -5.54507       -0.18908
H         -3.28829       -4.21498        1.74050
H         -2.18016       -5.58077        1.87382
H         -1.54719       -3.95562        1.67182
H         -1.05442       -5.46200       -1.73978
H         -0.25691       -4.56304       -0.45300
H         -0.74680       -6.23731       -0.18468
C         -6.39233       -2.40516       -2.90940
C         -5.03453       -2.08657       -3.56152
C         -4.73866       -3.11358       -4.67109
C         -5.11683       -0.68742       -4.20321
H         -6.39508       -3.40401       -2.47421
H         -6.61350       -1.69396       -2.11360
H         -7.19867       -2.35564       -3.64092
H         -3.76003       -2.93399       -5.11441
H         -4.74871       -4.13209       -4.28545
H         -5.48351       -3.05407       -5.46452
H         -5.38253        0.06927       -3.46554
H         -4.16756       -0.40699       -4.65813
H         -5.87735       -0.66429       -4.98360
C         -3.31138        5.46805        2.73470
C         -2.78282        4.09145        3.17422
C         -1.24689        4.16405        3.27961
C         -3.34177        3.73485        4.56454
H         -2.93208        5.72773        1.74640
H         -4.39983        5.47608        2.68805
H         -3.00018        6.24633        3.43131
H         -0.94324        4.89874        4.02514
H         -0.82811        3.20154        3.57335
H         -0.80453        4.45973        2.32987
H         -4.43091        3.73223        4.56795
H         -3.00320        2.74512        4.87058
H         -3.00928        4.45249        5.31434
C         -6.74735       -0.04788        1.35121
C         -6.52382        1.42327        0.95289
C         -6.92639        1.62615       -0.51986
C         -7.42214        2.31230        1.83358
H         -7.79814       -0.32211        1.25973
H         -6.17093       -0.72182        0.71829
H         -6.44167       -0.21715        2.38345
H         -6.75147        2.65661       -0.82844
H         -6.35205        0.97752       -1.18009
H         -7.98240        1.40253       -0.67033
H         -8.47271        2.05638        1.69643
H         -7.18691        2.18312        2.88986
H         -7.30297        3.36509        1.57820
C          1.25693       -3.78167        3.98346
C          2.34351       -4.36985        3.06257
C          3.38429       -5.09707        3.93487
C          1.70936       -5.39232        2.10280
H          0.46775       -3.29872        3.40853
H          0.79709       -4.55958        4.59249
H          1.68343       -3.03459        4.65235
H          2.91728       -5.90047        4.50448
H          4.16887       -5.54041        3.32195
H          3.84525       -4.41337        4.64746
H          0.92289       -4.93381        1.50654
H          2.45627       -5.79596        1.41950
H          1.26790       -6.22354        2.65234
C          6.98112       -1.47582        0.32704
C          6.34597       -1.42740        1.72945
C          7.13528       -2.37003        2.65760
C          6.43949        0.00465        2.28948
H          6.90289       -2.47683       -0.09667
H          6.48774       -0.78477       -0.35532
H          8.03654       -1.20697        0.36695
H          7.10227       -3.39681        2.29370
H          8.18245       -2.07233        2.71082
H          6.73513       -2.34831        3.67107
H          7.47855        0.31673        2.39282
H          5.94051        0.71931        1.63579
H          5.96837        0.06509        3.27030
C          1.00256        5.20069        0.11805
C          2.40902        4.75889        0.55644
C          3.39098        5.91815        0.30067
C          2.41043        4.44755        2.06605
H          0.67027        6.07159        0.68273
H          0.99661        5.46188       -0.93961
H          0.27679        4.40283        0.26804
H          3.39139        6.20920       -0.74954
H          3.11259        6.79582        0.88395
H          4.40619        5.64043        0.58369
H          2.15640        5.33360        2.64751
H          1.68932        3.67059        2.31528
H          3.39356        4.10350        2.38635
C          5.23717        3.45095       -3.82609
C          5.41246        2.33699       -2.77657
C          5.57947        0.99410       -3.51468
C          6.68398        2.60044       -1.94922
H          5.19040        4.43427       -3.36016
H          6.07040        3.45784       -4.52861
H          4.31926        3.30693       -4.39458
H          5.76323        0.17999       -2.81398
H          4.69166        0.75311       -4.09824
H          6.42571        1.03262       -4.20047
H          7.56952        2.60644       -2.58448
H          6.63022        3.56217       -1.44006
H          6.81682        1.82872       -1.19110
H         -1.50924        0.17804       -4.48396
H          2.50827        1.82697       -4.64803
H         -1.94446       -1.42821       -5.05621
H         -0.52307       -0.62001       -5.71274
H          1.16910        1.11312       -5.54354
H          1.99944        0.18018       -4.29463
