59
-75.80950501
Cl         1.65895        0.61595        2.26823
P          1.59237       -0.12376       -0.87760
P         -1.60979       -0.08584       -0.79868
C          0.57892        0.13388       -2.39946
H          0.33905        1.19570       -2.49391
H          1.17562       -0.14690       -3.27316
C         -0.67252       -0.68455       -2.27053
H         -0.43124       -1.74049       -2.12113
H         -1.31540       -0.61094       -3.15331
C          2.62515       -1.64745       -1.14353
H          2.48142       -1.88201       -2.20704
C          2.95272        1.12362       -0.69139
H          3.03618        1.31904        0.38451
C         -3.03069       -1.19766       -0.38085
H         -3.23496       -1.00770        0.68056
C         -2.62104        1.38961       -1.28973
H         -2.04447        1.97155       -2.01916
C          4.06808       -1.15880       -0.92611
H          4.37634       -1.37467        0.10392
H          4.76400       -1.72551       -1.56301
C          4.19617        0.36548       -1.18596
H          4.31615        0.54666       -2.26301
H          5.10469        0.77108       -0.71509
C         -4.18396       -0.65858       -1.25632
H         -4.43660       -1.40902       -2.01860
H         -5.09355       -0.55535       -0.64632
C         -3.84046        0.70197       -1.94011
H         -4.70840        1.37767       -1.91375
H         -3.63550        0.53444       -3.00875
C          2.20810       -2.84978       -0.29708
H          2.79971       -3.72301       -0.60543
H          1.17104       -3.10810       -0.54688
C          2.68165        2.42772       -1.43121
H          3.59500        3.03886       -1.42712
H          2.49081        2.20423       -2.48877
C         -2.71830       -2.67442       -0.58539
H         -3.64664       -3.25529       -0.49287
H         -2.38529       -2.82856       -1.61968
C         -3.00571        2.25974       -0.09383
H         -3.84287        2.91041       -0.38303
H         -3.40631        1.61066        0.69589
C          2.34221       -2.65713        1.20681
H          1.93202       -3.50308        1.76342
H          1.81886       -1.76423        1.54526
H          3.38355       -2.55048        1.51327
C          1.52756        3.21596       -0.83400
H          0.60682        2.63286       -0.84462
H          1.33628        4.14356       -1.37821
H          1.72583        3.47854        0.20694
C         -1.68133       -3.19611        0.39634
H         -1.43351       -4.24481        0.21751
H         -2.03445       -3.11102        1.42583
H         -0.75715       -2.62227        0.33258
C         -1.86891        3.11057        0.44942
H         -1.46838        3.77246       -0.32053
H         -2.19172        3.73746        1.28373
H         -1.04628        2.49581        0.81292
Cl        -1.55070        0.15204        2.42547
Pd         0.02518        0.06285        0.83175
