171
-217.84723976
P         -1.58427        0.38326       -0.42873
P          1.62843       -0.34946       -0.23961
C         -0.81913        1.37504       -1.71592
C          1.02495       -1.28205       -1.65359
C          0.04352        0.79788       -2.64039
C          0.69282        1.62959       -3.57302
C          0.42556        2.98845       -3.56980
C         -0.45556        3.53722       -2.66245
C         -1.06928        2.72545       -1.72867
C          1.28040       -2.63141       -1.68655
C          0.78366       -3.40908       -2.71405
C          0.00880       -2.82856       -3.69531
C         -0.26288       -1.47078       -3.68023
C          0.27352       -0.67200       -2.65177
Cl         1.43676        0.31928        2.92047
Cl        -1.72884       -0.31661        2.81145
C         -1.10879       -0.88457       -4.75625
C          1.64538        1.07267       -4.57263
H         -0.66104        4.59510       -2.67802
H         -1.74899        3.14714       -1.00594
H          1.87135       -3.08004       -0.90440
H          0.99624       -4.46518       -2.74472
H          0.91765        3.61903       -4.29101
H         -0.39656       -3.43313       -4.48914
C         -3.67376       -3.38216       -1.80486
C         -2.74528       -3.46783       -0.77417
C         -2.08961       -2.30440       -0.39650
C         -2.36173       -1.11460       -1.02419
C         -3.28072       -1.04475       -2.04170
C         -3.96011       -2.18585       -2.45243
H         -4.20693       -4.26460       -2.10424
H         -1.37135       -2.32263        0.40515
H         -3.47227       -0.08858       -2.49840
C         -4.59846        2.77457        1.97850
C         -3.24910        3.09274        2.08984
C         -2.34487        2.37300        1.32025
C         -2.77623        1.36551        0.49402
C         -4.11044        1.05886        0.40363
C         -5.05270        1.76223        1.14053
H         -5.31104        3.32027        2.56627
H         -1.29011        2.58029        1.38849
H         -4.42035        0.25039       -0.23498
C          4.35969       -2.92870        2.30051
C          2.99551       -3.19141        2.30870
C          2.17884       -2.40434        1.50702
C          2.71171       -1.38450        0.75755
C          4.06002       -1.12847        0.77543
C          4.91644       -1.90373        1.54609
H          5.00752       -3.53620        2.90537
H          1.11591       -2.57034        1.47444
H          4.43798       -0.31037        0.18925
C          3.78888        3.50777       -1.19010
C          2.76301        3.52522       -0.25281
C          2.09154        2.33485       -0.01000
C          2.45095        1.18314       -0.66470
C          3.47183        1.18008       -1.58285
C          4.16528        2.35169       -1.86364
H          4.32426        4.41505       -1.39672
H          1.28658        2.29962        0.70314
H          3.72553        0.25361       -2.06931
Pd        -0.08861       -0.03207        1.30569
C         -0.97828       -5.18327       -0.33036
C         -2.43305       -4.77827       -0.03794
C         -3.36185       -5.92192       -0.48825
C         -2.62049       -4.57011        1.47773
H         -0.70627       -6.08947        0.21054
H         -0.84094       -5.37147       -1.39458
H         -0.28562       -4.39497       -0.03933
H         -3.14284       -6.83674        0.06237
H         -4.40718       -5.67010       -0.31005
H         -3.23351       -6.13869       -1.54853
H         -1.94407       -3.80900        1.86381
H         -3.63924       -4.25266        1.69882
H         -2.42764       -5.49258        2.02508
C         -6.41140       -2.45057       -2.86953
C         -5.05450       -2.14192       -3.52835
C         -4.75702       -3.18999       -4.61756
C         -5.14020       -0.75566       -4.19704
H         -7.21829       -2.41551       -3.60128
H         -6.41258       -3.44136       -2.41630
H         -6.63309       -1.72539       -2.08662
H         -5.50396       -3.14958       -5.41022
H         -3.78025       -3.01563       -5.06700
H         -4.76193       -4.20042       -4.21112
H         -5.40689        0.01457       -3.47379
H         -4.19190       -0.48211       -4.65822
H         -5.90141       -0.74923       -4.97707
C         -3.86173        4.83875        3.84041
C         -2.72109        4.16135        3.05741
C         -1.96560        5.24057        2.26195
C         -1.76361        3.49505        4.06443
H         -4.41284        4.11245        4.43747
H         -3.46793        5.59340        4.52116
H         -4.55967        5.33493        3.16627
H         -2.61789        5.70229        1.52100
H         -1.59311        6.02421        2.92146
H         -1.11247        4.81438        1.73789
H         -2.27568        2.70912        4.61899
H         -0.91028        3.04198        3.56134
H         -1.38104        4.22187        4.78058
C         -6.98017        1.53577       -0.44729
C         -6.53347        1.37581        1.01809
C         -7.43041        2.26177        1.90330
C         -6.70938       -0.09117        1.45413
H         -8.03354        1.28180       -0.56433
H         -6.84077        2.56340       -0.78228
H         -6.40657        0.88799       -1.10907
H         -8.47746        1.97724        1.79966
H         -7.16470        2.16155        2.95548
H         -7.34447        3.31131        1.62243
H         -6.37072       -0.23016        2.48057
H         -7.75528       -0.39243        1.39872
H         -6.13478       -0.76510        0.81956
C          0.89223       -4.34886        3.15281
C          2.43254       -4.31061        3.19587
C          2.86501       -4.07198        4.65490
C          2.97294       -5.66480        2.70451
H          0.53512       -4.56650        2.14767
H          0.50462       -5.12458        3.81295
H          0.46743       -3.39774        3.47377
H          3.94874       -4.10032        4.75953
H          2.51999       -3.09811        5.00184
H          2.44810       -4.83274        5.31459
H          2.58354       -6.48343        3.30950
H          2.68228       -5.84173        1.66901
H          4.06071       -5.69724        2.75680
C          6.83419       -0.47262        0.67942
C          6.42889       -1.64543        1.59470
C          7.17680       -2.90785        1.12850
C          6.83718       -1.30075        3.03852
H          7.91009       -0.30331        0.72019
H          6.57170       -0.67681       -0.35842
H          6.34376        0.45141        0.98526
H          6.96445       -3.75685        1.77718
H          6.88007       -3.17824        0.11525
H          8.25468       -2.74660        1.13305
H          7.90468       -1.09076        3.10293
H          6.29764       -0.42165        3.39046
H          6.61704       -2.12242        3.71902
C          3.42605        5.89487        0.39038
C          2.33863        4.80622        0.48025
C          2.08851        4.50372        1.97220
C          1.04722        5.33703       -0.16126
H          3.57075        6.22736       -0.63707
H          3.14689        6.76951        0.97785
H          4.37810        5.52634        0.77209
H          1.25490        3.81718        2.11017
H          2.97135        4.05568        2.42752
H          1.85243        5.41590        2.51991
H          0.69592        6.23519        0.34631
H          1.21209        5.58283       -1.21002
H          0.25760        4.58853       -0.11454
C          5.11738        3.46532       -3.90820
C          5.35541        2.38784       -2.83322
C          5.55769        1.03151       -3.53684
C          6.63380        2.72192       -2.04274
H          4.19378        3.27342       -4.45246
H          5.04410        4.45859       -3.46737
H          5.93497        3.48314       -4.62868
H          6.39217        1.07956       -4.23630
H          5.77890        0.24410       -2.81669
H          4.67071        0.74419       -4.10017
H          6.81302        1.97713       -1.26779
H          7.50418        2.74343       -2.69830
H          6.55515        3.69475       -1.55860
H         -0.54089       -0.77061       -5.68052
H          2.49326        1.74232       -4.71707
H         -1.49458        0.09540       -4.47212
H         -1.96452       -1.52596       -4.96830
H          1.16026        0.93728       -5.54010
H          2.03887        0.10685       -4.25271
