59
-75.80705581
Cl         1.62235        0.55101        2.34431
P          1.56780       -0.00799       -0.86067
P         -1.62239       -0.08136       -0.76851
C          0.57171       -0.00156       -2.41475
H          0.32872        1.03121       -2.67384
H          1.18401       -0.40599       -3.22666
C         -0.67994       -0.80032       -2.18641
H         -0.43543       -1.83606       -1.93519
H         -1.32946       -0.81786       -3.06703
C          2.67172       -1.49551       -0.80596
H          2.64814       -1.93780       -1.80938
C          2.84487        1.33119       -0.74682
H          2.80019        1.70128        0.28497
C         -3.12185       -1.09703       -0.37326
H         -3.33139       -0.89326        0.68444
C         -2.52421        1.44389       -1.31518
H         -1.89745        1.98124       -2.03705
C          4.06066       -0.90157       -0.51184
H          4.24347       -0.95069        0.57041
H          4.84822       -1.51647       -0.97329
C          4.16326        0.57408       -0.98209
H          4.40154        0.60255       -2.05439
H          4.99610        1.09018       -0.48032
C         -4.22407       -0.48706       -1.26901
H         -4.53708       -1.23342       -2.01262
H         -5.12326       -0.29094       -0.66657
C         -3.76628        0.82047       -1.98579
H         -4.58556        1.55449       -2.01283
H         -3.53711        0.60043       -3.03991
C          2.19318       -2.50628        0.22759
H          1.15062       -2.77151        0.01086
H          2.17088       -2.02158        1.21286
C          2.60313        2.47878       -1.72009
H          3.49908        3.11420       -1.75575
H          2.50045        2.06943       -2.73345
C         -2.90606       -2.59176       -0.57316
H         -3.87335       -3.10826       -0.49996
H         -2.56359       -2.76802       -1.60087
C         -2.88381        2.34534       -0.13359
H         -3.69947        3.01824       -0.43339
H         -3.30675        1.72023        0.66400
C          3.04869       -3.76336        0.27661
H          2.67998       -4.48076        1.01336
H          4.08286       -3.53045        0.53639
H          3.06564       -4.26611       -0.69228
C          1.38901        3.31635       -1.35385
H          0.48782        2.70491       -1.31067
H          1.20935        4.11880       -2.07293
H          1.50917        3.77549       -0.37065
C         -1.92719       -3.18356        0.42786
H         -2.29256       -3.07175        1.45047
H         -0.96403       -2.67660        0.38077
H         -1.75050       -4.24739        0.25404
C         -1.72195        3.16753        0.40140
H         -0.89706        2.53456        0.72699
H         -1.33330        3.84366       -0.36205
H         -2.01548        3.77895        1.25771
Cl        -1.58139       -0.07064        2.42155
Pd         0.02269        0.05235        0.85644
