111
-148.55642231
P         -2.31990       -2.37014       -0.50249
P          0.06471       -0.27478       -0.43263
C         -1.40143       -2.00540       -2.01602
C         -0.39943       -1.06078       -1.99008
C         -2.42707       -4.18585       -0.17615
C         -1.53925       -4.56867        0.98813
C         -1.72900       -2.63486       -3.19952
H         -2.51056       -3.37740       -3.20815
C         -1.05784       -2.30242       -4.36368
H         -1.31288       -2.79171       -5.28950
C         -0.06985       -1.33668       -4.34163
H          0.44631       -1.07053       -5.24934
C          0.25793       -0.71165       -3.15172
H          1.02035        0.05123       -3.12043
Pd        -1.42241       -1.07035        1.17541
Cl        -3.15610       -1.66092        2.46976
Cl        -0.48699        0.33760        2.65460
C         -3.93105       -4.40822        0.07032
C         -4.12185       -1.95806       -0.65085
H         -1.60313       -5.63766        1.20496
H         -0.49318       -4.32392        0.78739
H         -1.83415       -4.02981        1.89090
H         -4.12192       -4.35507        1.15106
H         -4.22289       -5.42575       -0.23108
H         -4.37989       -1.41275        0.26659
C         -4.79699       -3.34224       -0.65805
C         -4.41690       -1.11347       -1.87325
H         -2.10670       -4.68879       -1.09789
H         -4.95875       -3.65192       -1.69962
H         -5.80064       -3.27995       -0.21076
H         -3.82972       -0.19321       -1.87444
H         -4.17221       -1.65424       -2.78849
H         -5.47374       -0.84188       -1.92518
C         -1.07862        4.12523       -0.64585
C         -2.07594        3.12629       -0.50788
C         -1.67456        1.80132       -0.48286
C         -0.34623        1.46429       -0.49252
C          0.62588        2.42979       -0.50836
C          0.29261        3.77386       -0.55070
O         -1.45079        5.46826       -0.91931
C         -3.57309        3.45137       -0.38919
H         -2.40119        1.00807       -0.44955
H          1.65476        2.11602       -0.49258
C          1.41097        4.82729       -0.51966
C          4.42145       -1.09178        0.68738
C          3.58977       -0.33687        1.55492
C          2.27068       -0.13803        1.18550
C          1.78638       -0.58159       -0.01696
C          2.61988       -1.21114       -0.90576
C          3.95215       -1.44265       -0.60590
O          5.68010       -1.56362        1.14098
C          4.06170        0.27803        2.88353
H          1.58636        0.34439        1.86039
H          2.21561       -1.53975       -1.84635
C          4.84165       -2.05115       -1.70396
C         -3.79384        4.82167        0.27679
C         -4.21080        3.43267       -1.78629
C         -4.28450        2.40281        0.49765
C          2.62485        4.30872        0.28298
C          1.86240        5.13159       -1.95583
C          0.93788        6.11920        0.17176
C         -1.59256        5.75616       -2.30460
H         -3.38814        5.62776       -0.32928
H         -4.85531        5.02068        0.42203
H         -3.30533        4.85753        1.24996
H         -5.27787        3.64659       -1.73133
H         -3.75223        4.17292       -2.43799
H         -4.08589        2.45662       -2.25440
H         -3.77400        2.29461        1.45431
H         -5.31362        2.69930        0.69852
H         -4.32221        1.42575        0.01943
H          2.31578        3.97759        1.27382
H          3.11811        3.47864       -0.22050
H          3.36966        5.09405        0.40991
H          2.22710        4.22847       -2.44468
H          1.04075        5.52209       -2.55177
H          2.66509        5.86852       -1.96508
H          0.13500        6.59598       -0.38509
H          0.56797        5.90438        1.17376
H          1.75166        6.83887        0.25715
H         -2.61405        6.07554       -2.51021
H         -0.91909        6.56793       -2.57920
H         -1.36055        4.87368       -2.90218
C          5.59625       -2.82965        1.77444
C          3.44597       -0.50552        4.05473
C          5.59429        0.28566        3.01842
C          3.59723        1.74873        2.95942
C          6.34103       -1.90068       -1.39282
C          4.49848       -3.54013       -1.87472
C          4.58374       -1.31779       -3.03931
H          3.75901       -1.54779        4.03785
H          3.74861       -0.07895        5.01061
H          2.35761       -0.48465        4.00819
H          5.90682        0.81604        3.91764
H          5.99045       -0.72505        3.07899
H          6.05315        0.77322        2.15899
H          3.96233        2.22526        3.86879
H          3.97812        2.31293        2.10898
H          2.51177        1.83194        2.96283
H          6.95206       -2.24967       -2.22494
H          6.59087       -0.85776       -1.20106
H          6.62165       -2.47753       -0.51481
H          3.44854       -3.67031       -2.13536
H          5.09865       -3.98967       -2.66540
H          4.68379       -4.09484       -0.95699
H          4.73754       -0.24514       -2.92466
H          3.56884       -1.47645       -3.39992
H          5.26161       -1.67353       -3.81484
H          4.92250       -2.77682        2.62823
H          5.21785       -3.57349        1.07543
H          6.58802       -3.12761        2.11524
