105
-153.07193936
Cl        -0.91597        2.12533       -2.87192
Pd         0.08017        1.48775       -0.95583
P          1.35600        0.74452        0.83877
N          0.59651       -0.46518        1.85928
C          0.02626       -1.71202        1.64594
C         -0.09522       -2.32467        0.37457
C         -0.79860       -3.54067        0.25398
C         -0.92483       -4.16838       -1.11490
C         -1.43151       -5.61939       -1.11011
C         -2.58506       -5.79754       -0.11867
C         -2.13636       -5.43450        1.30481
C         -1.35550       -4.14713        1.38158
C         -1.18146       -3.55430        2.62488
C         -0.50696       -2.36832        2.75505
H         -0.41040       -1.90860        3.72332
H         -1.60327       -4.03110        3.49350
H         -3.00602       -5.36165        1.97051
H         -3.41992       -5.15007       -0.41458
H         -1.73558       -5.93001       -2.11966
H         -1.59631       -3.54551       -1.71747
C          0.64597       -1.83289       -0.81193
C         -0.05479       -1.22570       -1.89046
C          0.63295       -0.99752       -3.08628
C          1.94996       -1.35294       -3.22237
C          2.63771       -1.97944       -2.19011
C          4.05387       -2.43107       -2.43056
C          4.43492       -3.64680       -1.57438
C          4.12440       -3.37642       -0.09920
C          2.63930       -3.03466        0.11978
C          1.98605       -2.22813       -0.98096
H          2.06976       -3.96376        0.24204
H          4.74574       -2.54315        0.24624
H          5.49360       -3.90914       -1.71207
H          4.73242       -1.59781       -2.21705
H          2.46324       -1.16030       -4.14915
H          0.11702       -0.51183       -3.89576
N         -1.39164       -0.82079       -1.78279
P         -1.84371        0.18490       -0.40048
C         -2.81217       -0.75734        0.77743
C         -3.53231       -1.82884        0.30760
C         -4.33436       -2.55081        1.17293
C         -4.41633       -2.19997        2.51353
C         -3.70553       -1.09375        2.96057
C         -2.90818       -0.37017        2.09257
H         -2.35961        0.49052        2.43660
H         -3.77886       -0.80376        3.99479
C         -5.27862       -2.97409        3.44820
H         -4.89862       -3.39350        0.81207
H         -3.45723       -2.09670       -0.73430
C         -2.94565        1.51481       -0.89678
C         -2.85766        2.73472       -0.26823
C         -3.70824        3.75971       -0.63969
C         -4.65158        3.56726       -1.64011
C         -4.73877        2.32052       -2.24518
C         -3.88640        1.29638       -1.87375
H         -3.95492        0.32644       -2.33950
H         -5.47787        2.15694       -3.01074
C         -5.58016        4.66509       -2.02717
H         -3.64208        4.71852       -0.15450
H         -2.12150        2.88353        0.50591
H         -1.76314       -0.34394       -2.59455
H          0.77674       -0.19562        2.81875
C          1.29138        2.27371        1.77872
C          0.10321        2.61033        2.38197
C         -0.00270        3.80034        3.07888
C          1.08138        4.66345        3.16754
C          2.27490        4.30180        2.55666
C          2.37738        3.11212        1.85953
H          3.29678        2.83889        1.36794
H          3.12294        4.96146        2.62584
C          0.97840        5.93600        3.93406
H         -0.93017        4.06609        3.55671
H         -0.73608        1.93928        2.30205
C          3.09422        0.34808        0.64618
C          3.78658        0.68695       -0.49154
C          5.14120        0.42749       -0.57808
C          5.81492       -0.16851        0.47901
C          5.10638       -0.47630        1.63275
C          3.74885       -0.22035        1.71335
H          3.19559       -0.45589        2.60859
H          5.62293       -0.92065        2.46630
C          7.27670       -0.43655        0.39105
H          5.68704        0.69805       -1.46581
H          3.27144        1.18461       -1.29525
Cl         1.78748        2.88928       -1.38455
H         -1.51903       -6.24229        1.71558
H         -0.60914       -6.29051       -0.83202
H         -2.97892       -6.82310       -0.15687
H          0.04840       -4.11609       -1.61884
H          4.42023       -4.23385        0.52144
H          2.51275       -2.49527        1.06615
H          4.18853       -2.65527       -3.49641
H          3.86546       -4.52207       -1.91158
H         -5.38053       -4.01049        3.12311
H         -4.85711       -2.98377        4.45438
H         -6.27727       -2.53891        3.50485
H         -5.11102        5.64124       -1.89655
H         -5.87687        4.57890       -3.07337
H         -6.48423        4.64127       -1.41723
H          1.29510        5.79230        4.96795
H          1.60657        6.71164        3.49385
H         -0.04701        6.30804        3.94459
H          7.55676       -1.29602        1.00171
H          7.57599       -0.64981       -0.63608
H          7.84993        0.42435        0.73740
