171
-217.84405721
P         -1.55784        0.37942       -0.35456
P          1.62218       -0.31823       -0.33203
C         -0.84469        1.43131       -1.62296
C          0.99280       -1.22021       -1.74664
C         -0.01439        0.90269       -2.60513
C          0.60746        1.78594       -3.50837
C          0.33908        3.14241       -3.42627
C         -0.51245        3.64204       -2.46428
C         -1.09511        2.78049       -1.55644
C          1.26034       -2.56304       -1.84673
C          0.74864       -3.29347       -2.90127
C         -0.04693       -2.67122       -3.84021
C         -0.32657       -1.31712       -3.75697
C          0.22107       -0.56521       -2.69916
Cl         1.49759        0.45903        2.97713
Cl        -1.56463       -0.22787        2.92667
C         -1.19299       -0.68652       -4.79036
C          1.53949        1.28849       -4.55640
H         -0.71691        4.69909       -2.41479
H         -1.74993        3.16359       -0.79083
H          1.87323       -3.04062       -1.09921
H          0.96607       -4.34561       -2.98643
H          0.80935        3.81107       -4.12745
H         -0.46220       -3.24003       -4.65506
C         -3.64739       -3.33455       -1.86347
C         -2.70301       -3.46518       -0.85216
C         -2.03717       -2.31947       -0.43694
C         -2.32344       -1.10328       -1.00536
C         -3.26122       -0.98978       -2.00218
C         -3.94784       -2.11172       -2.45113
H         -4.18130       -4.20424       -2.19664
H         -1.29705       -2.36926        0.34270
H         -3.46348       -0.01409       -2.41078
C         -4.64935        2.60073        2.12110
C         -3.31641        2.97980        2.22614
C         -2.38372        2.30954        1.44380
C         -2.77738        1.29719        0.60389
C         -4.09848        0.93462        0.51813
C         -5.06574        1.58185        1.27313
H         -5.37406        3.10603        2.73132
H         -1.33648        2.54981        1.50763
H         -4.37967        0.12543       -0.13229
C          4.13756       -2.84405        2.48830
C          2.80309       -3.18154        2.29516
C          2.06717       -2.43156        1.38746
C          2.64043       -1.37690        0.71961
C          3.95877       -1.05549        0.92861
C          4.73611       -1.78230        1.82028
H          4.72105       -3.41358        3.18548
H          1.02578       -2.65243        1.22469
H          4.38110       -0.21542        0.40619
C          4.02460        3.34091       -1.46500
C          2.93163        3.49096       -0.62034
C          2.20396        2.35469       -0.28972
C          2.55041        1.13434       -0.81286
C          3.62313        1.00427       -1.66056
C          4.39730        2.10960       -1.99167
H          4.60524        4.21172       -1.70409
H          1.36318        2.40912        0.38006
H          3.86604        0.02983       -2.05105
Pd         0.01644       -0.01504        1.33762
C         -2.30558       -4.67428        1.32165
C         -2.36572       -4.81954       -0.21231
C         -1.00267       -5.28967       -0.74395
C         -3.42554       -5.88690       -0.54873
H         -2.11397       -5.63616        1.79693
H         -1.51412       -3.99391        1.63023
H         -3.24832       -4.28837        1.70878
H         -0.23056       -4.55070       -0.53546
H         -0.70542       -6.23302       -0.28628
H         -1.04128       -5.43431       -1.82333
H         -4.41883       -5.56042       -0.24095
H         -3.44699       -6.10112       -1.61688
H         -3.20799       -6.82280       -0.03412
C         -6.40574       -2.37378       -2.83120
C         -5.06448       -2.02316       -3.50135
C         -4.78397       -3.01553       -4.64589
C         -5.17305       -0.60666       -4.09950
H         -6.39205       -3.38621       -2.42888
H         -6.61542       -1.69098       -2.00809
H         -7.22788       -2.30721       -3.54354
H         -3.81790       -2.81401       -5.10667
H         -4.77486       -4.04434       -4.28857
H         -5.54762       -2.94191       -5.42002
H         -5.42676        0.12583       -3.33374
H         -4.23746       -0.30445       -4.56843
H         -5.95221       -0.56729       -4.86060
C         -3.23081        3.57833        4.65440
C         -2.90781        4.06624        3.23062
C         -3.68364        5.36243        2.93216
C         -1.40044        4.37384        3.15078
H         -2.70176        2.65007        4.86980
H         -2.93418        4.31778        5.39796
H         -4.29708        3.39070        4.77531
H         -4.75806        5.21644        3.03573
H         -3.38961        6.15851        3.61601
H         -3.48779        5.70191        1.91517
H         -0.80530        3.49207        3.38786
H         -1.12970        4.71956        2.15405
H         -1.12570        5.15583        3.85845
C         -7.00037        1.32807       -0.29967
C         -6.52959        1.13529        1.15385
C         -7.45201        1.94950        2.08078
C         -6.63761       -0.35252        1.53890
H         -8.04124        1.02689       -0.41658
H         -6.91495        2.37312       -0.59676
H         -6.40234        0.73498       -0.99025
H         -7.41923        3.01042        1.83349
H         -8.48640        1.62007        1.98316
H         -7.16450        1.82800        3.12497
H         -6.27838       -0.51340        2.55511
H         -7.67080       -0.69532        1.48672
H         -6.04546       -0.97916        0.87284
C          0.94976       -3.68323        3.90072
C          2.10547       -4.29690        3.08665
C          3.07039       -4.99889        4.06117
C          1.55190       -5.34691        2.10799
H          0.21532       -3.20748        3.25239
H          0.43498       -4.44507        4.48559
H          1.32425       -2.92398        4.58686
H          2.55702       -5.78674        4.61230
H          3.90203       -5.45831        3.52724
H          3.47206       -4.29553        4.79033
H          1.05762       -6.15827        2.64202
H          0.82567       -4.90371        1.43027
H          2.35344       -5.77515        1.50645
C          6.29427        0.11399        2.36100
C          6.20524       -1.39025        2.03494
C          6.99494       -1.68961        0.74938
C          6.84112       -2.17379        3.19962
H          7.32313        0.40750        2.56850
H          5.93861        0.72557        1.53290
H          5.69133        0.35321        3.23671
H          6.95034       -2.75140        0.50778
H          6.58608       -1.13886       -0.09599
H          8.04269       -1.41020        0.85874
H          6.29149       -2.01012        4.12644
H          6.86017       -3.24337        2.99188
H          7.87030       -1.85459        3.36371
C          2.39190        5.87182       -1.21042
C          2.58667        4.87439       -0.05310
C          3.73657        5.34754        0.85389
C          1.29021        4.83625        0.77795
H          1.60928        5.52893       -1.88605
H          2.10646        6.85413       -0.83441
H          3.30543        5.99191       -1.79123
H          4.66957        5.42992        0.29739
H          3.51681        6.32361        1.28605
H          3.89562        4.64388        1.67085
H          1.04146        5.82903        1.15263
H          0.45138        4.48890        0.17568
H          1.39576        4.17629        1.63876
C          5.21869        1.43688       -4.26987
C          5.64142        1.93123       -2.87568
C          6.57850        0.89603       -2.22599
C          6.41869        3.25162       -3.04065
H          4.66395        0.50143       -4.20622
H          4.58679        2.17396       -4.76362
H          6.08938        1.26642       -4.90289
H          7.49404        0.77942       -2.80564
H          6.85417        1.20559       -1.21799
H          6.10118       -0.08077       -2.16146
H          6.74700        3.63626       -2.07517
H          7.30611        3.10327       -3.65588
H          5.80573        4.01057       -3.52650
H         -1.56013        0.28760       -4.46450
H          1.01825        1.13283       -5.50163
H         -2.06074       -1.31176       -5.00082
H         -0.64826       -0.54877       -5.72529
H          1.99995        0.34432       -4.26210
H          2.34018        2.00694       -4.73328
