115
-277.94109766
P         -1.54202       -0.58380       -0.22101
P          2.14899        0.35715       -0.05713
C         -2.15594       -2.26061       -0.00572
C         -1.28815       -3.26942        0.35179
H         -0.29834       -3.03417        0.70663
C         -1.66337       -4.58469        0.17387
H         -0.96330       -5.38834        0.34300
C         -2.89387       -4.88870       -0.38522
C         -3.80488       -3.86850       -0.62010
H         -4.75541       -4.10835       -1.06903
C         -3.43832       -2.55115       -0.42241
H         -4.10911       -1.75052       -0.69287
C         -2.85981        0.51908        0.33705
C         -3.30859        0.47063        1.63540
H         -2.84466       -0.20373        2.33591
C         -4.35262        1.27463        2.03741
H         -4.72525        1.23089        3.04847
C         -4.95095        2.14000        1.14147
C         -4.49687        2.18379       -0.16193
H         -4.98570        2.84990       -0.85551
C         -3.45323        1.37449       -0.56338
H         -3.11068        1.39932       -1.58461
C         -1.18440       -0.27086       -1.98714
C         -0.59384        0.96554       -2.15954
H         -0.35887        1.55530       -1.29282
C         -0.14519        1.39606       -3.40689
C         -0.51127        0.64438       -4.51640
H         -0.21338        0.97278       -5.49809
C         -1.10303       -0.59256       -4.35641
H         -1.26210       -1.21542       -5.22040
C         -1.33950       -1.12510       -3.08854
C          1.99442       -0.37212       -1.72494
C          1.41834       -1.63007       -1.69209
H          1.07001       -2.02386       -0.75203
C          1.13491       -2.33042       -2.86484
C          1.65543       -1.83398       -4.05380
H          1.48453       -2.37418       -4.96997
C          2.23529       -0.58231       -4.09486
H          2.51480       -0.16166       -5.04588
C          2.30730        0.21888       -2.95563
C         -1.40404       -2.63311       -2.98216
H         -1.96869       -3.02965       -3.83421
H         -2.01228       -2.91517       -2.12643
C          0.00601       -3.32650       -2.90116
H          0.06886       -3.98217       -2.02671
H          0.14835       -4.00121       -3.75299
C          0.99364        2.37762       -3.49365
H          0.79398        3.22127       -2.82472
H          1.00556        2.82391       -4.49431
C          2.38394        1.71411       -3.16577
H          3.09972        1.92282       -3.96869
H          2.82731        2.17247       -2.28492
C          2.06202        2.15715        0.02662
C          0.85541        2.78907        0.23950
C          3.18871        2.89171       -0.27545
C          0.74356        4.14124       -0.00030
C          3.07502        4.24610       -0.51938
C          1.83878        4.86475       -0.44301
C          3.66087       -0.22706        0.73113
C          4.16294       -1.44890        0.34768
C          4.30974        0.51722        1.68913
C          5.32188       -1.92708        0.92170
H          3.65423       -2.02317       -0.40927
C          5.46945        0.03818        2.26450
H          3.90122        1.46628        1.99701
C          5.98067       -1.18737        1.88504
H          5.73700       -2.87594        0.62168
H          5.99852        0.60866        3.01158
Pd         0.29739       -0.31820        1.22140
Cl        -1.14128       -1.32916        2.63413
Cl         1.70216        0.22913        2.89185
H          3.91707        4.81906       -0.87519
H          4.13543        2.39204       -0.40989
H         -0.21540        4.63068        0.05499
H         -0.01092        2.22719        0.54631
C         -4.52818       -6.64215       -1.22043
C         -3.03631       -6.23252       -1.05648
C         -2.29019       -6.10427       -2.42357
F         -5.13214       -5.81103       -2.08093
F         -4.58995       -7.90635       -1.66692
F         -5.11090       -6.54830       -0.01601
F         -2.42383       -7.17560       -0.33664
F         -2.77840       -5.05017       -3.09169
F         -0.99599       -5.88442       -2.15468
F         -2.43813       -7.23197       -3.13143
C         -7.41280        2.06605        1.47224
C         -6.14698        2.96737        1.53955
C         -5.93627        3.58975        2.95154
F         -7.55025        1.66350        0.19983
F         -7.23774        0.99996        2.26722
F         -8.48710        2.77252        1.85495
F         -6.31617        3.97209        0.67555
F         -4.74732        4.21113        2.94695
F         -6.91838        4.47128        3.19592
F         -5.93610        2.61897        3.87575
C          7.18356       -3.16612        2.87093
C          7.28736       -1.66593        2.46497
C          8.41267       -1.41096        1.42144
F          8.28841       -3.51776        3.54654
F          6.10167       -3.30031        3.65260
F          7.04495       -3.92079        1.77201
F          7.58448       -0.96807        3.56461
F          8.47082       -0.08742        1.21029
F          9.58180       -1.85624        1.90530
F          8.10329       -2.03774        0.27688
C          1.14360        5.81370       -2.59118
C          1.64148        6.17733       -1.15742
C          0.65468        7.10305       -0.38949
F         -0.00946        5.13822       -2.49912
F          0.99057        6.93031       -3.31559
F          2.06742        5.01532       -3.14373
F          2.80552        6.82112       -1.27450
F         -0.56169        6.54121       -0.35625
F          1.12296        7.24655        0.85946
F          0.60414        8.29505       -1.00426
