72
-98.10201005
Fe        -0.01653        2.84800        0.00455
P          1.82400       -0.00968       -0.05716
P         -1.81916       -0.03009        0.05627
C          1.39904        1.60163        0.70657
C          0.39605        1.80909        1.73481
C          0.33032        3.23118        2.01691
C          1.31771        3.89869        1.18849
C          2.00120        2.88953        0.39776
C         -1.41602        1.59264       -0.69740
C         -2.03488        2.87030       -0.37806
C         -1.36929        3.89545       -1.16337
C         -0.37055        3.24868       -1.99457
C         -0.41527        1.82344       -1.72298
C          3.17927       -0.76669        0.96527
C          4.37868        0.09411        0.53422
C          2.87587        0.31993       -1.55852
C          4.29867        0.48631       -0.97010
C         -3.15385       -0.80474       -0.98074
C         -4.36651        0.04656       -0.56823
C         -2.89434        0.28586        1.54469
C         -4.30989        0.44275        0.93630
H         -0.20972        1.03035        2.19460
H         -0.33213        3.71085        2.74079
H          1.53156        4.96982        1.18323
H          2.80042        3.06707       -0.32438
H         -2.83642        3.03150        0.34529
H          0.20269        1.05782       -2.18843
Cl         1.58128       -3.05472       -0.43145
Cl        -1.54872       -3.05657        0.45361
Pd         0.01199       -1.50001       -0.00316
H          3.31655       -1.79688        0.61663
C          2.90423       -0.75303        2.47070
H          2.51972        1.25512       -2.00669
C          2.80723       -0.81287       -2.58132
H          5.32476       -0.42227        0.76009
H          4.38713        1.00270        1.15421
H          4.65962        1.51492       -1.11770
H          4.99199       -0.14231       -1.54604
H         -1.59861        4.96328       -1.14960
H          0.28456        3.74330       -2.71523
H          3.86153       -0.71548        3.00911
H          3.63301       -0.69931       -3.29759
H         -3.28633       -1.83444       -0.62874
C         -2.85850       -0.79648       -2.48304
H         -2.55103        1.22254        1.99982
C         -2.83250       -0.84739        2.56695
H         -5.30492       -0.47858       -0.80559
H         -4.37434        0.95360       -1.19051
H         -4.67890        1.46953        1.07635
H         -5.00750       -0.18849        1.50415
H         -3.80781       -0.74569       -3.03436
H         -3.02516       -1.79450        2.04652
C          2.10431       -1.95739        2.94368
H          1.86035       -1.89892        4.00678
H          1.16927       -2.05615        2.39472
H          2.65793       -2.88458        2.78372
C          1.49209       -0.89030       -3.33640
H          1.31035        0.01822       -3.91369
H          1.46903       -1.73076       -4.03388
H          0.65538       -1.01515       -2.65143
C         -2.07005       -2.01322       -2.94459
H         -1.80828       -1.95757       -4.00360
H         -1.14549       -2.12844       -2.38099
H         -2.64113       -2.93151       -2.79499
C         -1.52269       -0.92364        3.33099
H         -1.50455       -1.76254        4.03047
H         -0.68210       -1.05075        2.65125
H         -1.34416       -0.01375        3.90710
H          2.39282        0.18236        2.73115
H          3.00479       -1.76008       -2.06284
H         -2.33036        0.13117       -2.73761
H         -3.66374       -0.73507        3.27706
