75
-122.81773769
P          1.89006       -0.54978        0.02342
C          1.71420       -1.55396       -1.45517
C          1.80779       -0.98639       -2.70508
C          1.75916       -1.78906       -3.82975
C          1.61842       -3.15594       -3.69297
C          1.52160       -3.72074       -2.43655
C          1.57234       -2.91516       -1.31301
H          1.51543       -3.34165       -0.32372
H          1.40758       -4.78694       -2.33011
H          1.57681       -3.78255       -4.56886
H          1.82792       -1.34735       -4.81021
H          1.91507        0.08210       -2.79505
C          3.24301       -1.26887        0.96754
C          4.49605       -1.29279        0.39829
C          5.55399       -1.85981        1.08595
C          5.34622       -2.40810        2.33592
C          4.08433       -2.39585        2.89610
C          3.02902       -1.82830        2.20605
H          2.03953       -1.81264        2.63328
H          3.92109       -2.82575        3.87068
H          6.16958       -2.84899        2.87389
H          6.53701       -1.87545        0.64477
H          4.63858       -0.87654       -0.58686
C          2.23563        1.16336       -0.40545
C          3.39126        1.81845       -0.04962
C          3.55510        3.16663       -0.33501
C          2.51166        3.84941       -0.95841
C          1.34207        3.20877       -1.30276
C          1.19918        1.83808       -1.03378
O          0.01460        1.15153       -1.34908
C         -1.18352        1.82353       -1.05315
C         -1.33809        3.19253       -1.32383
C         -2.52095        3.81873       -0.99910
C         -3.56714        3.12226       -0.39586
C         -3.39277        1.77535       -0.11071
C         -2.22312        1.13440       -0.44589
P         -1.86589       -0.57708       -0.01576
C         -3.19927       -1.28884        0.96280
C         -2.96251       -1.82079        2.20937
C         -4.00215       -2.38497        2.92537
C         -5.27146       -2.42153        2.38341
C         -5.50232       -1.90033        1.12598
C         -4.46009       -1.33633        0.41241
H         -4.62073       -0.94258       -0.57918
H         -6.49109       -1.93517        0.69894
H         -6.08245       -2.86042        2.94141
H         -3.82079       -2.79392        3.90576
H         -1.96753       -1.78826        2.62252
C         -1.73148       -1.57614       -1.50590
C         -1.54210       -0.98737       -2.73497
C         -1.53126       -1.76511       -3.87773
C         -1.70512       -3.13140       -3.78078
C         -1.88511       -3.72061       -2.54506
C         -1.90052       -2.93825       -1.40425
H         -2.05915       -3.38142       -0.43375
H         -2.01731       -4.78728       -2.46856
H         -1.69243       -3.73975       -4.67034
H         -1.37980       -1.30552       -4.84052
H         -1.39062        0.07745       -2.79354
Pd        -0.00451       -0.08645        1.36231
Cl        -1.58510        0.89056        2.65325
Cl         1.55942        0.78574        2.74375
H         -4.16807        1.23407        0.40185
C         -4.82035        3.82136       -0.00608
H         -4.75119        4.19600        1.01591
H         -5.67802        3.14965       -0.06132
H         -5.01978        4.66868       -0.66335
H         -2.62976        4.86893       -1.20519
S          0.00270        4.08053       -2.07073
H          2.61150        4.90060       -1.16401
C          4.79274        3.88133        0.07572
H          4.16325        1.28676        0.47795
H          4.69897        4.26131        1.09377
H          5.65838        3.21846        0.04205
H          4.99655        4.72674       -0.58266
