45
-71.81922656
C          0.39696        1.47940        3.18539
P         -0.14158        0.75770        1.60018
P         -0.12419        0.78463       -1.59444
C          0.43534        1.53525       -3.15851
Cl         2.84634       -0.06323        1.73824
H         -0.44230        1.54405        3.87191
H          0.82994        2.52965       -2.97050
Cl         2.97813        0.16921       -1.65689
C         -1.29302        1.81786        0.69470
C         -1.28811        1.82594       -0.68481
C         -2.20108        2.59519       -1.37659
C         -3.11788        3.36551       -0.68326
C         -3.12295        3.35734        0.69780
C         -2.21142        2.57868        1.38871
H         -2.19718        2.58369       -2.45455
H         -3.83052        3.96829       -1.22180
H         -3.83977        3.95351        1.23815
H         -2.21655        2.55348        2.46642
Pd         1.49147        0.38341        0.00462
H         -0.39297        1.60584       -3.85765
H          0.80091        2.47410        3.02021
H          1.21710        0.92337       -3.59941
C         -1.72050       -3.44755       -1.99536
C         -0.36561       -3.20372       -2.10796
C          0.10959       -1.90901       -2.00920
C         -0.77054       -0.87281       -1.79953
C         -2.12053       -1.10895       -1.68393
C         -2.59938       -2.40273       -1.78524
H         -2.09270       -4.45638       -2.06799
H          0.32076       -4.01921       -2.26596
H          1.16488       -1.69472       -2.07446
H         -2.79005       -0.28397       -1.50099
H         -3.65550       -2.59498       -1.69111
C         -1.81516       -3.45455        1.91103
C         -2.67327       -2.38885        1.72115
C         -2.16940       -1.10269        1.64746
C         -0.81530       -0.89428        1.76989
C          0.04327       -1.95199        1.95926
C         -0.45622       -3.23898        2.03076
H         -2.20676       -4.45733        1.96223
H         -3.73270       -2.55868        1.62137
H         -2.82299       -0.26171        1.48067
H          1.10193       -1.75968        2.03100
H          0.21430       -4.07037        2.17330
H          1.16724        0.85518        3.62918
