45
-71.81520308
C          0.46910        1.68855        2.92621
P         -0.19986        0.73295        1.52283
P         -0.03302        0.83391       -1.60689
C          0.72913        1.78461       -2.96625
Cl         2.79807       -0.41352        1.73389
H          1.25420        1.12016        3.41672
H          1.10461        2.73034       -2.58604
Cl         3.19937        0.10843       -1.45513
C         -1.39530        1.72563        0.60520
C         -1.32052        1.77280       -0.76879
C         -2.24353        2.49988       -1.49191
C         -3.24024        3.19444       -0.82916
C         -3.31160        3.15369        0.54995
C         -2.38834        2.41614        1.27003
H         -2.18317        2.51460       -2.56811
H         -3.96207        3.76509       -1.38999
H         -4.08830        3.69380        1.06593
H         -2.43800        2.37192        2.34602
Pd         1.52707        0.29937        0.02278
H         -0.00214        1.98166       -3.74487
H         -0.31759        1.89598        3.64580
H          1.55714        1.22373       -3.39037
C         -1.72803       -3.21113       -2.80435
C         -1.11801       -2.43205       -3.76857
C         -0.59568       -1.19611       -3.43127
C         -0.68946       -0.74988       -2.13278
C         -1.29523       -1.52279       -1.17082
C         -1.81735       -2.75893       -1.50286
H         -2.13266       -4.17469       -3.06782
H         -1.04640       -2.78739       -4.78344
H         -0.11361       -0.58196       -4.17405
H         -1.34278       -1.15789       -0.15991
H         -2.28701       -3.36570       -0.74629
C         -1.99026       -3.23267        2.84290
C         -2.82490       -2.17809        2.52814
C         -2.28636       -0.96337        2.14431
C         -0.91979       -0.81316        2.07804
C         -0.08571       -1.86125        2.39078
C         -0.61978       -3.07653        2.77603
H         -2.40946       -4.17983        3.14089
H         -3.89427       -2.30146        2.57801
H         -2.92558       -0.13595        1.88311
H          0.98060       -1.72014        2.31753
H          0.03236       -3.89929        3.01888
H          0.88260        2.62785        2.57026
