58
-89.86579885
P          1.58868        0.49127        0.95235
C          3.02481        1.51770        0.62642
C          2.93741        2.87930        0.80533
C          4.03217        3.67988        0.53116
C          5.20474        3.11023        0.07546
C          5.28510        1.74413       -0.10952
C          4.18896        0.94660        0.16546
H          4.23371       -0.12000        0.01627
H          2.00941        3.31303        1.14317
C          2.01037       -1.25167        0.78073
C          2.80482       -1.84478        1.73602
C          3.11311       -3.19009        1.63904
C          2.62372       -3.93432        0.58434
C          1.83564       -3.33450       -0.37664
C          1.53327       -1.98965       -0.27848
H          0.92712       -1.51893       -1.03348
H          3.18800       -1.25365        2.55246
C          0.98477        0.79609        2.66725
C         -0.48031        0.44032        2.89040
C         -0.90927       -0.86658        2.23117
P         -1.51562       -0.54514        0.52061
C         -3.13626        0.21731        0.68177
C         -4.24956       -0.59215        0.66141
C         -5.50894       -0.03537        0.79576
C         -5.64345        1.33006        0.95123
C         -4.52394        2.13816        0.97257
C         -3.26630        1.57829        0.83919
H         -2.38689        2.20194        0.83654
H         -4.12773       -1.65649        0.53675
C         -1.64480       -2.05597       -0.44401
C         -1.57877       -3.29550        0.15149
C         -1.67020       -4.43500       -0.62735
C         -1.83131       -4.32498       -1.99475
C         -1.90691       -3.07947       -2.58613
C         -1.81570       -1.94308       -1.80451
H         -1.87833       -0.95976       -2.24245
H         -1.45071       -3.37020        1.21898
Pd        -0.05711        0.85867       -0.64182
Cl         1.46576        1.88271       -1.92533
Cl        -1.85886        1.35557       -1.89214
H         -0.08974       -1.58586        2.20364
H         -1.73846       -1.34030        2.76253
H         -0.68579        0.40845        3.97221
H         -1.11920        1.24850        2.50786
H          1.62749        0.20091        3.31851
H          1.18112        1.84216        2.91299
H          3.96641        4.74691        0.66670
H          6.19763        1.29990       -0.47174
H          3.73351       -3.65583        2.38704
H          1.45157       -3.91322       -1.20061
H         -6.38219       -0.66652        0.77697
H         -4.62895        3.20446        1.08782
H         -1.61295       -5.40756       -0.16676
H         -2.03688       -2.99183       -3.65222
H          6.05676        3.73364       -0.14169
H          2.85970       -4.98332        0.50939
H         -6.62385        1.76615        1.05311
H         -1.90085       -5.21324       -2.60127
