171
-217.84221705
P         -1.49986        0.27839       -0.39285
P          1.69683       -0.46221       -0.22324
C         -0.76120        1.16332       -1.76798
C          1.05013       -1.49119       -1.55977
C          0.03298        0.49503       -2.69070
C          0.62371        1.22937       -3.73661
C          0.38557        2.59163       -3.82429
C         -0.41615        3.23401       -2.90407
C         -0.98947        2.51286       -1.87466
C          1.28208       -2.84378       -1.47642
C          0.71757       -3.71105       -2.39021
C         -0.10017       -3.21579       -3.38214
C         -0.34648       -1.85795       -3.49110
C          0.25406       -0.97081       -2.57614
Cl         1.43272       -0.15553        3.03119
Cl        -1.74994       -0.93229        2.66450
C         -1.26959       -1.37895       -4.55683
C          1.47424        0.55191       -4.75426
H         -0.59544        4.29335       -2.98843
H         -1.62299        3.00154       -1.15186
H          1.90960       -3.23018       -0.69089
H          0.90501       -4.77003       -2.31853
H          0.83447        3.15116       -4.62746
H         -0.56427       -3.88814       -4.08407
C         -3.88041       -3.31507       -1.78338
C         -2.92776       -3.47907       -0.78627
C         -2.22687       -2.35553       -0.36966
C         -2.44866       -1.13509       -0.95717
C         -3.36712       -0.99846       -1.96973
C         -4.11562       -2.09018       -2.39568
H         -4.46749       -4.16450       -2.07968
H         -1.50379       -2.42489        0.42326
H         -3.48195       -0.03784       -2.44010
C         -4.25430        3.13766        1.84518
C         -3.03172        2.81956        2.42253
C         -2.18671        1.96910        1.72371
C         -2.56696        1.42155        0.52138
C         -3.78351        1.74627       -0.02771
C         -4.64982        2.61869        0.61950
H         -4.92385        3.80089        2.35975
H         -1.23194        1.71424        2.14683
H         -4.05602        1.31376       -0.97245
C          4.75448       -2.66493        2.30174
C          3.44672       -3.13068        2.27166
C          2.53642       -2.45127        1.47314
C          2.92682       -1.35787        0.73935
C          4.22437       -0.91058        0.78283
C          5.16923       -1.56112        1.56733
H          5.46655       -3.16360        2.93327
H          1.50176       -2.74808        1.44860
H          4.48775       -0.03604        0.21531
C          3.24906        3.68824       -1.16616
C          2.25108        3.53608       -0.21165
C          1.78367        2.25316        0.03722
C          2.28470        1.17752       -0.65507
C          3.27127        1.34505       -1.59633
C          3.78200        2.61014       -1.86406
H          3.63084        4.67162       -1.36055
H          1.03277        2.09033        0.79104
H          3.65611        0.48055       -2.11085
Pd        -0.04047       -0.35185        1.33731
C         -1.49422       -4.84191        0.81133
C         -2.69273       -4.85954       -0.15864
C         -2.39799       -5.88561       -1.26906
C         -3.95173       -5.27981        0.61909
H         -0.58688       -4.51734        0.30238
H         -1.67706       -4.17337        1.65228
H         -1.30958       -5.83619        1.21763
H         -2.18900       -6.86814       -0.84628
H         -3.24189       -5.99054       -1.94956
H         -1.53184       -5.57951       -1.85478
H         -4.17857       -4.55634        1.40199
H         -4.81780       -5.34290       -0.03896
H         -3.81441       -6.25404        1.08790
C         -6.59002       -2.08833       -2.73257
C         -5.23131       -1.95596       -3.44328
C         -5.09909       -3.06257       -4.50821
C         -5.17957       -0.59059       -4.15745
H         -6.68251       -3.05729       -2.24277
H         -6.70289       -1.31748       -1.97049
H         -7.41326       -1.98849       -3.43975
H         -4.12681       -3.02051       -4.99704
H         -5.21251       -4.05405       -4.07236
H         -5.86427       -2.95356       -5.27669
H         -5.34899        0.22737       -3.45829
H         -4.21588       -0.43586       -4.64150
H         -5.95023       -0.52681       -4.92552
C         -3.67222        4.25319        4.42809
C         -2.62151        3.30392        3.82141
C         -1.27972        4.05215        3.73993
C         -2.47155        2.08036        4.74554
H         -4.63392        3.75338        4.54215
H         -3.36039        4.59449        5.41515
H         -3.81128        5.13465        3.80236
H         -0.97650        4.41752        4.72089
H         -0.48870        3.40154        3.37109
H         -1.35662        4.90850        3.07102
H         -3.40677        1.52396        4.80174
H         -1.70307        1.40051        4.37909
H         -2.19581        2.38355        5.75524
C         -7.12935        2.61563        1.00620
C         -6.01030        3.00963        0.02452
C         -6.26980        2.29730       -1.31769
C         -6.03888        4.52997       -0.21579
H         -8.11005        2.85814        0.59720
H         -7.10318        1.54508        1.20868
H         -7.02700        3.13855        1.95625
H         -7.24073        2.57942       -1.72465
H         -5.51364        2.56340       -2.05610
H         -6.26716        1.21479       -1.19214
H         -5.24009        4.82673       -0.89536
H         -6.98773        4.83816       -0.65455
H         -5.90722        5.08016        0.71523
C          1.56373       -4.72214        2.90002
C          3.02999       -4.31758        3.15094
C          3.18138       -3.91996        4.63003
C          3.92698       -5.52997        2.83997
H          1.40821       -4.99486        1.85651
H          1.28870       -5.58145        3.51134
H          0.88251       -3.90960        3.15217
H          4.21426       -3.66665        4.86636
H          2.56406       -3.05102        4.85767
H          2.87646       -4.73402        5.28729
H          3.85477       -5.80131        1.78688
H          4.97250       -5.31916        3.06096
H          3.63099       -6.39553        3.43247
C          7.57663       -2.21775        1.28767
C          6.62110       -1.07429        1.67673
C          6.89702       -0.63477        3.12602
C          6.89035        0.12090        0.74284
H          8.61503       -1.88949        1.33084
H          7.47017       -3.07050        1.95696
H          7.37303       -2.56047        0.27332
H          6.21437        0.16154        3.42216
H          6.76585       -1.46277        3.82173
H          7.91633       -0.26469        3.23479
H          6.70637       -0.15084       -0.29597
H          6.25716        0.97049        0.99804
H          7.92708        0.44816        0.82047
C          2.29399        6.05760        0.15166
C          1.70296        4.71086        0.61093
C          2.06828        4.49312        2.09063
C          0.17299        4.78001        0.45599
H          2.06825        6.24618       -0.89784
H          1.87701        6.88017        0.73266
H          3.37559        6.07856        0.28327
H          1.66576        3.55159        2.46167
H          3.15008        4.46248        2.21864
H          1.67627        5.29685        2.71357
H         -0.23975        5.61130        1.02676
H         -0.09964        4.92542       -0.58833
H         -0.30423        3.86553        0.80414
C          5.37750        4.24589       -2.99484
C          4.93649        2.77466       -2.86527
C          4.49164        2.28028       -4.25101
C          6.14280        1.94676       -2.38691
H          4.55839        4.87136       -3.34943
H          5.72583        4.63727       -2.03918
H          6.19670        4.34211       -3.70737
H          4.22743        1.22424       -4.22406
H          3.62499        2.84282       -4.59679
H          5.28831        2.40436       -4.98438
H          5.89780        0.88654       -2.33835
H          6.98901        2.06175       -3.06403
H          6.45894        2.26690       -1.39440
H         -0.85475       -1.56575       -5.54838
H          0.86331        0.01609       -5.48077
H         -1.47183       -0.31100       -4.46762
H         -2.22471       -1.89966       -4.49365
H          2.14669       -0.16782       -4.28494
H          2.08053        1.26883       -5.30820
