72
-108.40207078
Cl         1.68200       -0.95245        2.66648
Cl        -0.94766        0.69332        2.82452
P         -1.06453        1.18002       -0.29823
P          2.25040       -0.15184       -0.37774
C          3.27265        1.42453       -0.10223
C          4.54896        1.36962       -0.93403
C          2.45123        2.64514       -0.49546
C          3.30358       -1.72377       -0.16753
C          4.24363       -1.63649        1.03087
C          1.42786       -0.40134       -2.05906
C          1.50565        0.79894       -2.97799
C         -1.14396       -0.17434       -1.50071
C          0.00404       -0.93098       -1.99162
C         -0.52142       -2.00388       -2.83829
C         -1.96758       -1.89305       -2.87877
C         -2.34971       -0.76673       -2.04704
C          3.60930        1.54452        1.38554
H          4.33107        1.19854       -1.98756
H          5.09618        2.31071       -0.85851
H          1.49295        2.64985        0.02139
H          2.27110        2.69219       -1.56639
C          2.31727       -2.86322        0.04035
H          3.71001       -1.35994        1.93785
H          5.04607       -0.92104        0.86111
H          2.02349       -1.19988       -2.51097
H          1.10868        0.56092       -3.96717
H          2.52854        1.15060       -3.11217
H          0.90390        1.61750       -2.58874
H          0.08290       -2.69873       -3.42469
H         -2.64715       -2.53215       -3.44710
Pd         0.50703        0.23241        1.16230
H         -3.36513       -0.42219       -1.83867
C          4.13018       -1.98733       -1.43247
H          4.71525       -2.60274        1.21575
H          1.80534       -2.75639        0.99531
H          1.57107       -2.88552       -0.75507
H          2.82993       -3.82719        0.04856
H          3.51637       -2.34879       -2.25651
H          4.65555       -1.09546       -1.76813
H          4.87857       -2.75885       -1.24394
H          5.21758        0.58191       -0.59129
H          2.97138        3.56490       -0.22317
H          4.24377        0.73379        1.73306
H          4.14361        2.47522        1.58320
H          2.70742        1.55001        1.99772
C         -2.68480        1.33677        0.47654
C         -3.04379        2.43426        1.21717
C         -4.34736        2.21400        1.66458
C         -4.72876        0.98929        1.17253
O         -3.71718        0.44068        0.43755
H         -2.42089        3.29347        1.41121
H         -4.93707        2.87440        2.27915
H         -5.68766        0.51286        1.33532
C         -0.74308        2.77845       -1.06023
C         -1.11511        3.07932       -2.34666
C         -0.72808        4.39934       -2.58359
C         -0.14168        4.84989       -1.42587
O         -0.14547        3.86384       -0.48050
H         -1.61714        2.41409       -3.03149
H         -0.86777        4.95761       -3.49485
H          0.26831        5.83982       -1.26846
Fe        -1.32206       -2.11742       -0.95375
C         -0.89174       -3.81168        0.13009
C         -2.19967       -3.91061       -0.49112
C         -3.00679       -2.80159       -0.01367
C         -2.19878       -2.01609        0.89849
C         -0.89485       -2.63703        0.98188
H         -0.07248       -4.52473        0.01459
H         -2.52904       -4.69761       -1.17343
H         -4.04782       -2.60103       -0.27731
H         -2.50874       -1.10982        1.42194
H         -0.08991       -2.30395        1.63933
