111
-148.55588682
P         -2.71238       -1.76924        0.35691
P          0.11551       -0.53798       -0.34101
C         -1.96708       -2.09259       -1.26441
C         -0.71268       -1.59504       -1.54498
C         -3.66278       -3.22626        0.98720
C         -2.89870       -3.96164        2.06651
C         -2.64633       -2.82335       -2.21814
H         -3.63501       -3.19357       -2.00203
C         -2.06039       -3.06120       -3.44958
H         -2.58984       -3.63208       -4.19485
C         -0.80059       -2.56540       -3.72609
H         -0.34621       -2.74800       -4.68598
C         -0.12644       -1.82453       -2.77207
H          0.84966       -1.41370       -2.97788
Pd        -1.00962       -0.90916        1.64999
Cl        -2.38133       -0.98809        3.42240
Cl         0.74019       -0.03644        2.75730
C         -4.98638       -2.59121        1.45251
C         -4.04688       -0.48625        0.33322
H         -3.46241       -4.81926        2.44100
H         -1.93655       -4.32291        1.69555
H         -2.69667       -3.30576        2.91442
H         -4.90145       -2.34287        2.51952
H         -5.80791       -3.32045        1.38288
H         -3.82051        0.20103        1.15955
C         -5.31572       -1.30160        0.64698
C         -4.08509        0.25473       -0.98581
H         -3.83790       -3.88227        0.12517
H         -5.80228       -1.57590       -0.29915
H         -6.04706       -0.67918        1.18467
H         -3.14689        0.78100       -1.17061
H         -4.24105       -0.43766       -1.81507
H         -4.89334        0.98935       -1.00857
C         -1.36518        3.71629       -0.99868
C         -0.80410        3.34936        0.25317
C         -0.34671        2.05312        0.40659
C         -0.36505        1.16323       -0.63455
C         -0.78120        1.55276       -1.88043
C         -1.24724        2.83704       -2.10852
O         -2.12057        4.91135       -1.11483
C         -0.68832        4.29403        1.46044
H          0.00675        1.70835        1.36317
H         -0.76584        0.82894       -2.67714
C         -1.61327        3.22154       -3.55160
C          4.63358       -1.09574       -0.22982
C          3.78581       -2.22883       -0.32548
C          2.41688       -2.02224       -0.38414
C          1.88863       -0.76098       -0.29094
C          2.69811        0.32621       -0.09113
C          4.07398        0.18943       -0.01456
O          6.03851       -1.24282       -0.37895
C          4.33174       -3.66406       -0.38841
H          1.73848       -2.84863       -0.50976
H          2.23540        1.29241        0.00861
C          4.93270        1.42667        0.29111
C         -0.92382        5.76579        1.08008
C         -1.70402        3.87052        2.53527
C          0.73709        4.20148        2.04788
C         -0.47977        2.77671       -4.50197
C         -2.91605        2.51117       -3.95601
C         -1.77852        4.74083       -3.72911
C         -3.49435        4.72016       -0.81886
H         -0.73973        6.42499        1.92810
H         -0.26184        6.06325        0.26758
H         -1.94767        5.92957        0.75266
H         -2.72317        3.92889        2.15782
H         -1.52769        2.84427        2.85625
H         -1.63312        4.51258        3.41271
H          1.48048        4.43982        1.28802
H          0.86359        4.90244        2.87247
H          0.95362        3.20624        2.43236
H         -0.67936        3.10064       -5.52310
H          0.47208        3.20747       -4.19247
H         -0.36896        1.69380       -4.52106
H         -3.18867        2.75337       -4.98285
H         -2.80884        1.42918       -3.88452
H         -3.74201        2.80611       -3.31167
H         -1.93950        4.99900       -4.77554
H         -2.62932        5.11388       -3.16398
H         -0.89025        5.26710       -3.38143
H         -3.60840        4.32639        0.18993
H         -4.01493        5.67500       -0.89478
H         -3.93404        4.01408       -1.52125
C          6.49770       -1.10957       -1.71814
C          5.63161       -3.79873        0.42571
C          3.31776       -4.66134        0.21668
C          4.58216       -4.04882       -1.85434
C          6.19492        1.04138        1.08369
C          5.32207        2.11643       -1.02491
C          4.14454        2.43308        1.16039
H          6.42709       -3.18697        0.00756
H          5.47312       -3.48181        1.45596
H          5.98169       -4.83060        0.43780
H          3.75278       -5.65772        0.29147
H          3.01918       -4.35063        1.21758
H          2.42283       -4.74919       -0.39753
H          3.65998       -3.98662       -2.43175
H          5.30763       -3.38464       -2.31781
H          4.96100       -5.06763       -1.93147
H          6.84534        0.39215        0.50280
H          6.77072        1.92492        1.35801
H          5.92652        0.51347        1.99816
H          5.89972        1.45193       -1.66281
H          4.43353        2.41840       -1.57895
H          5.92125        3.00688       -0.83638
H          3.32380        2.88476        0.60567
H          4.78945        3.24529        1.49491
H          3.73468        1.94444        2.04404
H          5.66167       -0.90932       -2.38942
H          7.21680       -0.29283       -1.77827
H          6.99929       -2.02700       -2.02555
