72
-108.40411405
Cl         1.71607       -0.89189        2.67485
Cl        -0.93584        0.78931        2.80437
P         -1.11775        1.14550       -0.26989
P          2.25858       -0.12397       -0.37596
C          3.25036        1.47515       -0.12718
C          3.60212        1.62207        1.35480
C          4.51885        1.43966       -0.97187
C          3.33746       -1.67344       -0.13489
C          4.16326       -1.94967       -1.39791
C          1.44775       -0.41009       -2.05608
C          1.52148        0.75762       -3.01769
C         -1.13234       -0.18208       -1.51155
C          0.02609       -0.94002       -1.98350
C         -0.48814       -2.01758       -2.83163
C         -1.93151       -1.89994       -2.90680
C         -2.32637       -0.76660       -2.09286
C          2.39091        2.66792       -0.52355
H          2.70965        1.59494        1.97998
H          4.27562        0.84218        1.69950
H          5.20751        0.67010       -0.62718
H          5.04607        2.39317       -0.91166
C          4.28262       -1.54498        1.05565
H          4.93021       -2.69898       -1.19486
H          4.66597       -1.05412       -1.75808
H          2.04851       -1.22038       -2.47954
H          0.87269        1.56501       -2.68603
H          1.17035        0.46883       -4.01053
H          2.53472        1.14210       -3.12866
H          0.12516       -2.71452       -3.40616
H         -2.60070       -2.53743       -3.48878
Pd         0.51363        0.25120        1.16546
H         -3.34502       -0.41985       -1.90675
C          2.36924       -2.82347        0.10115
H          3.55376       -2.34560       -2.20929
H          3.75133       -1.25084        1.95840
H          4.76645       -2.50069        1.26242
H          5.07576       -0.82512        0.86191
H          1.85907       -2.70527        1.05580
H          1.62000       -2.87331       -0.69023
H          2.89655       -3.77918        0.12670
H          4.10002        2.57586        1.53694
H          4.29616        1.25181       -2.02120
H          2.16218        2.67593       -1.58604
H          1.45692        2.66614        0.03544
H          2.90366        3.60529       -0.30116
C         -2.78977        1.23083        0.42379
C         -3.22372        2.17812        1.31760
C         -4.55623        1.88728        1.60963
C         -4.88358        0.77309        0.87743
O         -3.80871        0.36014        0.14461
H         -2.63447        2.97861        1.73329
H         -5.20098        2.42898        2.28229
H         -5.84765        0.27970        0.87230
C         -0.73399        2.76023       -0.97089
C         -0.67472        3.91275       -0.22668
C         -0.35496        4.94974       -1.10416
C         -0.23276        4.38516       -2.35008
O         -0.45896        3.03992       -2.28166
H         -0.82630        3.99067        0.83778
H         -0.22829        5.99007       -0.85273
H          0.00951        4.91456       -3.26322
Fe        -1.31162       -2.11093       -0.95573
C         -2.99058       -2.77913       -0.02031
C         -2.18182       -1.99692        0.89450
C         -0.88097       -2.62429        0.98036
C         -0.88286       -3.79600        0.12399
C         -2.19567       -3.90192       -0.48649
H         -4.03060       -2.57290       -0.28405
H         -2.49184       -1.09380        1.42357
H         -0.07314       -2.29356        1.63545
H         -0.06507       -4.51089        0.00833
H         -2.52866       -4.68867       -1.16725
