58
-89.86769199
P          1.61312        0.28605        0.88063
C          3.00675        1.38311        0.60643
C          4.22352        0.86990        0.21962
C          5.29026        1.72237       -0.00086
C          5.12837        3.08360        0.16668
C          3.90458        3.59384        0.55310
C          2.83948        2.73858        0.77358
H          1.87480        3.12274        1.06604
H          4.33194       -0.19430        0.08602
C          1.98656       -1.37956        0.31378
C          2.05129       -1.59360       -1.04435
C          2.31551       -2.85860       -1.53488
C          2.51854       -3.90415       -0.65669
C          2.46902       -3.68374        0.70571
C          2.20724       -2.41575        1.19235
H          2.19027       -2.23237        2.25385
H          1.89663       -0.76099       -1.71231
C          1.18545        0.35908        2.66430
C          0.00775       -0.51293        3.06247
C         -1.34089        0.01476        2.60198
P         -1.67410       -0.17680        0.80349
C         -3.35590        0.37905        0.50342
C         -3.73046        1.64581        0.88890
C         -5.02042        2.08437        0.64779
C         -5.92514        1.25059        0.02066
C         -5.54381       -0.01866       -0.36722
C         -4.25344       -0.45375       -0.12513
H         -3.94001       -1.43950       -0.42801
H         -3.00940        2.29198        1.36405
C         -1.46498       -1.87280        0.23926
C         -1.32759       -2.09543       -1.11260
C         -1.14742       -3.38204       -1.58620
C         -1.11188       -4.44010       -0.70025
C         -1.26827       -4.21528        0.65315
C         -1.45122       -2.92744        1.12333
H         -1.60027       -2.74747        2.17523
H         -1.36569       -1.25805       -1.79142
Pd        -0.11092        0.90670       -0.54001
Cl         1.46336        1.59105       -1.98700
Cl        -1.87606        1.68218       -1.68627
H         -2.16125       -0.50102        3.10738
H         -1.44166        1.07431        2.84325
H          0.15599       -1.52706        2.67339
H         -0.00372       -0.62337        4.15814
H          2.09388        0.07148        3.19940
H          0.99302        1.40461        2.91171
H          6.24395        1.32449       -0.30651
H          3.77679        4.65647        0.67846
H          2.35824       -3.02685       -2.59835
H          2.63440       -4.49926        1.39045
H         -5.31573        3.07748        0.94408
H         -6.24793       -0.66805       -0.86095
H         -1.03026       -3.55596       -2.64315
H         -1.24891       -5.04258        1.34343
H          5.95778        3.74944       -0.00783
H          2.71901       -4.89325       -1.03503
H         -6.92925        1.59268       -0.17031
H         -0.96538       -5.44333       -1.06592
