72
-108.39818684
Cl         1.95586       -0.08659        2.80850
Cl        -0.94204        1.06993        2.73407
P         -1.21979        1.00584       -0.29073
P          2.23156       -0.17102       -0.38254
C          3.41101        1.31045       -0.28738
C          4.15147        1.29118        1.04651
C          4.42452        1.27834       -1.43975
C          3.13085       -1.83104       -0.11767
C          4.49424       -1.80462       -0.80006
C          1.43201       -0.34425       -2.08026
C          1.33452        0.91570       -2.92289
C         -1.14856       -0.29701       -1.55806
C          0.05856       -0.99543       -2.00582
C         -0.38543       -2.11981       -2.83340
C         -1.83217       -2.08694       -2.92919
C         -2.29993       -0.96826       -2.13339
C          2.56945        2.58232       -0.35439
H          4.80047        2.16370        1.13740
H          3.45433        1.31342        1.88300
H          4.81428        2.27777       -1.64008
H          3.99049        0.89632       -2.36100
C          3.29980       -2.11705        1.36899
H          5.18708       -1.14547       -0.28037
H          4.40938       -1.48262       -1.83834
H          2.10785       -1.03583       -2.59651
H          0.63914        1.61926       -2.47387
H          0.94153        0.68723       -3.91555
H          2.28682        1.42252       -3.06314
H          0.27151       -2.78435       -3.39772
H         -2.45697       -2.77396       -3.50400
Pd         0.51975        0.38746        1.15158
H         -3.33935       -0.68048       -1.96055
C          2.28932       -2.93914       -0.74761
H          4.94216       -2.79975       -0.79901
H          2.33321       -2.19015        1.86520
H          3.82395       -3.06094        1.52654
H          3.87092       -1.33554        1.86699
H          2.31633       -2.90041       -1.83628
H          2.65652       -3.92371       -0.45263
H          1.25290       -2.86002       -0.43391
H          4.77989        0.40842        1.14716
H          5.28380        0.65243       -1.20370
H          2.01438        2.65885       -1.28605
H          1.85742        2.62380        0.46973
H          3.20220        3.46850       -0.27997
C         -2.91912        1.07375        0.33194
C         -3.41205        2.09577        1.10412
C         -4.74357        1.79088        1.38669
C         -5.01008        0.59310        0.77055
O         -3.89914        0.14234        0.11790
H         -2.86355        2.96326        1.43322
H         -5.42802        2.37983        1.97514
H         -5.95747        0.06869        0.79041
C         -0.80130        2.65740       -0.87515
C         -0.52379        3.67687        0.00083
C         -0.24367        4.80928       -0.76535
C         -0.36421        4.43134       -2.08050
O         -0.70441        3.11099       -2.16257
H         -0.51918        3.59807        1.07668
H          0.01551        5.78825       -0.39664
H         -0.21405        5.07371       -2.93936
Fe        -1.23291       -2.21418       -0.96132
C         -2.89686       -2.62753        0.19527
C         -1.87863       -1.96714        0.98533
C         -0.68645       -2.78678        0.95324
C         -0.95897       -3.94918        0.12758
C         -2.32816       -3.84937       -0.34334
H         -3.91463       -2.26297        0.04106
H         -1.99419       -1.03601        1.54437
H          0.22117       -2.59391        1.52674
H         -0.27392       -4.77792       -0.06492
H         -2.84827       -4.57911       -0.96787
