59
-75.81192266
Cl         1.68732        0.51834        2.27287
P          1.57241       -0.05225       -0.87285
P         -1.60884       -0.08543       -0.81169
C          0.57599        0.31020       -2.38132
H          0.31543        1.37145       -2.39207
H          1.18638        0.10902       -3.26743
C         -0.65682       -0.54312       -2.32505
H         -0.39277       -1.60218       -2.26320
H         -1.30012       -0.41110       -3.20112
C          2.49989       -1.63344       -1.18784
H          2.35337       -1.81423       -2.26150
C          3.01626        1.09569       -0.66027
H          3.10411        1.27082        0.41880
C         -2.93199       -1.32912       -0.44086
H         -3.29011       -1.09603        0.56964
C         -2.74608        1.31443       -1.26313
H         -2.27595        1.84816       -2.09809
C          3.96998       -1.25581       -0.93725
H          4.24510       -1.51655        0.09174
H          4.63394       -1.85573       -1.57785
C          4.20917        0.26092       -1.15709
H          4.35765        0.45826       -2.22769
H          5.13750        0.58901       -0.66504
C         -3.99878       -0.94455       -1.47875
H         -3.76233       -1.45865       -2.42182
H         -4.98570       -1.32842       -1.17655
C         -4.04321        0.59463       -1.71434
H         -4.89031        1.02025       -1.15875
H         -4.25660        0.81435       -2.77093
C          1.98767       -2.83587       -0.39567
H          2.49804       -3.74106       -0.75315
H          0.92985       -2.98963       -0.64526
C          2.84817        2.42564       -1.38571
H          3.80886        2.95928       -1.38141
H          2.63342        2.22922       -2.44406
C         -2.47248       -2.78174       -0.50270
H         -3.35516       -3.43477       -0.54648
H         -1.94428       -2.95237       -1.44871
C         -2.98622        2.26984       -0.09505
H         -3.86248        2.89325       -0.32247
H         -3.27209        1.68039        0.78619
C          2.15209       -2.73008        1.11403
H          1.66651       -3.55824        1.63565
H          1.72202       -1.80727        1.50058
H          3.20142       -2.74096        1.41157
C          1.76761        3.30176       -0.77460
H          0.80022        2.80141       -0.79420
H          1.65767        4.25087       -1.30411
H          1.98762        3.52983        0.27008
C         -1.60091       -3.17343        0.67978
H         -1.24278       -4.20277        0.60613
H         -2.14755       -3.08122        1.62022
H         -0.72938       -2.52448        0.75974
C         -1.80287        3.16656        0.23008
H         -1.49752        3.74923       -0.64106
H         -2.03345        3.87169        1.03195
H         -0.93999        2.58724        0.55492
Cl        -1.59430        0.09936        2.40786
Pd         0.00303        0.15373        0.83849
