171
-217.84656825
P         -1.62795        0.39649       -0.36235
P          1.64556       -0.33398       -0.29015
C         -0.86756        1.43920       -1.61310
C          0.99168       -1.22533       -1.70284
C         -0.00732        0.90202       -2.56472
C          0.65474        1.77617       -3.44831
C          0.40517        3.13623       -3.37077
C         -0.47195        3.64625       -2.43734
C         -1.10052        2.79183       -1.55335
C          1.24247       -2.57175       -1.80059
C          0.71495       -3.30041       -2.84873
C         -0.07932       -2.67290       -3.78525
C         -0.34483       -1.31598       -3.70314
C          0.21598       -0.56767       -2.65047
Cl         1.46806        0.36833        2.91624
Cl        -1.64931       -0.41048        2.79518
C         -1.19623       -0.66959       -4.73938
C          1.61684        1.26836       -4.46500
H         -0.66103        4.70628       -2.39132
H         -1.77663        3.18339       -0.81089
H          1.85468       -3.05378       -1.05531
H          0.92097       -4.35499       -2.93191
H          0.91145        3.79907       -4.05217
H         -0.50280       -3.23932       -4.59750
C         -3.65881       -3.36892       -1.81740
C         -2.72092       -3.46556       -0.79627
C         -2.07558       -2.30186       -0.40053
C         -2.37686       -1.10100       -0.99325
C         -3.31227       -1.01949       -1.99481
C         -3.97525       -2.16142       -2.42871
H         -4.17445       -4.25359       -2.13984
H         -1.34149       -2.32563        0.38604
H         -3.52980       -0.05427       -2.41985
C         -4.67531        2.63461        2.14641
C         -3.33857        3.00996        2.22667
C         -2.42390        2.33592        1.42842
C         -2.83212        1.31650        0.60547
C         -4.15292        0.94900        0.55064
C         -5.10569        1.60506        1.31701
H         -5.39679        3.15077        2.74976
H         -1.37903        2.59476        1.46246
H         -4.44368        0.13192       -0.08614
C          4.29683       -2.91472        2.33862
C          2.93975       -3.20934        2.26261
C          2.15091       -2.43354        1.42350
C          2.69785       -1.39428        0.71286
C          4.03684       -1.11072        0.80905
C          4.86807       -1.87079        1.61959
H          4.92132       -3.50472        2.98122
H          1.09391       -2.62460        1.34473
H          4.43659       -0.27548        0.26132
C          3.93192        3.41414       -1.35272
C          2.86745        3.50929       -0.46513
C          2.17337        2.34607       -0.15889
C          2.52224        1.15588       -0.74598
C          3.56255        1.08078       -1.63872
C          4.29698        2.21715       -1.95679
H          4.50802        4.29620       -1.56292
H          1.36180        2.35549        0.54759
H          3.80203        0.12438       -2.07192
Pd        -0.03344       -0.00103        1.28589
C         -2.30667       -4.61609        1.40744
C         -2.36919       -4.79999       -0.12276
C         -1.00221       -5.27092       -0.64316
C         -3.42027       -5.88439       -0.43054
H         -2.11598       -5.56615        1.90628
H         -1.51303       -3.93017        1.69871
H         -3.24827       -4.21917        1.78608
H         -0.69993       -6.20366       -0.16739
H         -1.03762       -5.43584       -1.71971
H         -0.23526       -4.52346       -0.44571
H         -3.43978       -6.12729       -1.49256
H         -3.19557       -6.80449        0.10888
H         -4.41617       -5.55747       -0.13181
C         -5.21276       -0.70456       -4.11020
C         -5.07858       -2.11151       -3.49506
C         -6.42075       -2.48767       -2.84094
C         -4.75494       -3.10809       -4.62425
H         -5.49369        0.02973       -3.35561
H         -4.27824       -0.38587       -4.57049
H         -5.98249       -0.69188       -4.88173
H         -6.38848       -3.49469       -2.42635
H         -6.65958       -1.80042       -2.02941
H         -7.23329       -2.44978       -3.56628
H         -4.72306       -4.13230       -4.25516
H         -5.50866       -3.06349       -5.41024
H         -3.78770       -2.88471       -5.07263
C         -3.95358        4.61714        4.10337
C         -2.84414        4.13184        3.15058
C         -2.37750        5.31830        2.28976
C         -1.66898        3.61309        4.00382
H         -4.33380        3.79551        4.71017
H         -3.57384        5.38191        4.78082
H         -4.78518        5.05397        3.55100
H         -3.20008        5.70567        1.68889
H         -2.00032        6.12968        2.91197
H         -1.58246        5.01818        1.60921
H         -1.96725        2.73350        4.57382
H         -0.81622        3.33532        3.38621
H         -1.33171        4.37401        4.70724
C         -7.06244        1.31303       -0.22309
C         -6.57103        1.15581        1.22819
C         -7.48173        1.99152        2.14754
C         -6.67199       -0.32237        1.65006
H         -8.10613        1.01349       -0.31664
H         -6.97761        2.34977       -0.54815
H         -6.47775        0.69961       -0.90753
H         -8.51725        1.66020        2.07047
H         -7.18151        1.89401        3.19066
H         -7.45204        3.04641        1.87534
H         -6.29932       -0.45856        2.66503
H         -7.70523       -0.66762        1.61940
H         -6.08722       -0.96369        0.99143
C          1.63488       -5.34783        2.15627
C          2.27905       -4.31530        3.09776
C          1.19594       -3.68594        3.99555
C          3.29834       -5.04078        3.99658
H          2.38095       -5.78408        1.49235
H          1.16892       -6.15544        2.72058
H          0.86634       -4.88691        1.53921
H          0.71736       -4.44077        4.61900
H          1.63070       -2.93099        4.65014
H          0.41994       -3.20251        3.40347
H          4.07687       -5.51779        3.40150
H          3.76961       -4.34784        4.69334
H          2.81038       -5.81810        4.58453
C          6.98415       -1.60283        0.30141
C          6.35780       -1.50983        1.70551
C          7.12269       -2.45935        2.64701
C          6.49804       -0.07164        2.23932
H          8.04700       -1.36357        0.33130
H          6.87516       -2.60896       -0.10293
H          6.50699       -0.91102       -0.39158
H          6.72739       -2.40848        3.66134
H          7.05808       -3.49079        2.30097
H          8.17838       -2.19184        2.69140
H          6.01892        0.64651        1.57472
H          6.03329        0.02092        3.22067
H          7.54672        0.20973        2.33322
C          3.66459        5.27552        1.11811
C          2.51899        4.85690        0.18038
C          1.21640        4.76852        0.99917
C          2.32769        5.92132       -0.91662
H          3.44484        6.22638        1.60323
H          3.81815        4.52663        1.89493
H          4.60019        5.38586        0.57072
H          0.38832        4.43803        0.37301
H          1.31989        4.07323        1.83185
H          0.95327        5.74094        1.41509
H          2.03393        6.87771       -0.48438
H          3.24482        6.08163       -1.48175
H          1.55186        5.61577       -1.61764
C          6.78832        2.39748       -2.02729
C          5.52552        2.16365       -2.87580
C          5.42018        3.25511       -3.95841
C          5.64933        0.79680       -3.57769
H          6.75898        3.37201       -1.54079
H          6.87573        1.63913       -1.24938
H          7.68666        2.35586       -2.64292
H          6.26737        3.20644       -4.64236
H          4.50940        3.13455       -4.54362
H          5.40777        4.25250       -3.52127
H          4.75643        0.57356       -4.16105
H          6.50098        0.78711       -4.25778
H          5.79944       -0.00541       -2.85568
H         -0.61394       -0.43594       -5.63164
H          1.17108        1.27314       -5.46060
H         -1.63604        0.25795       -4.37022
H         -2.01380       -1.32655       -5.03724
H          1.93486        0.24926       -4.24115
H          2.51108        1.89144       -4.49554
