58
-89.86600805
P          1.92145       -0.21935        0.51844
C          1.55797        1.53654        0.67964
C          1.31978        2.23739       -0.48112
C          0.99399        3.57992       -0.42513
C          0.91001        4.21323        0.79837
C          1.15541        3.50901        1.96046
C          1.48173        2.16664        1.90043
H          1.68427        1.61685        2.80395
H          1.37569        1.71985       -1.42654
C          3.48548       -0.48762       -0.31452
C          4.35748        0.56082       -0.50005
C          5.55989        0.34770       -1.14990
C          5.87849       -0.91504       -1.60957
C          4.99968       -1.96366       -1.42114
C          3.79809       -1.74776       -0.76978
H          3.09629       -2.55405       -0.62397
H          4.09212        1.54166       -0.13967
C          1.87711       -1.15020        2.10938
C          0.50639       -1.69587        2.48460
C         -0.58353       -0.63327        2.59591
P         -1.44071       -0.32320        0.98886
C         -1.96294        1.39098        0.83663
C         -2.11220        2.18885        1.94861
C         -2.50327        3.50739        1.79965
C         -2.74757        4.01653        0.53935
C         -2.60969        3.20941       -0.57216
C         -2.21955        1.89251       -0.41852
H         -2.11938        1.24188       -1.27165
H         -1.92555        1.78140        2.92875
C         -2.83752       -1.44167        0.85436
C         -2.63381       -2.77508        0.58271
C         -3.71820       -3.62756        0.47669
C         -4.99846       -3.13758        0.64421
C         -5.19784       -1.79841        0.91598
C         -4.11153       -0.94829        1.02082
H         -4.25034        0.10104        1.22674
H         -1.63044       -3.14315        0.44080
Pd         0.05813       -0.71560       -0.74517
Cl         1.31647       -0.76158       -2.60509
Cl        -1.82490       -0.92038       -1.97734
H         -1.36966       -0.93009        3.29515
H         -0.17127        0.30538        2.96649
H          0.19591       -2.44919        1.74803
H          0.58894       -2.24494        3.43555
H          2.60423       -1.96044        2.01299
H          2.26034       -0.48695        2.88612
H          0.79790        4.12580       -1.33321
H          1.08917        4.00444        2.91519
H          6.24428        1.16656       -1.29938
H          5.24597       -2.94780       -1.78450
H         -2.61404        4.13708        2.66711
H         -2.80474        3.60294       -1.55614
H         -3.56306       -4.67151        0.25905
H         -6.19681       -1.41482        1.04306
H          0.64915        5.25786        0.84670
H          6.81356       -1.08193       -2.11898
H         -3.04870        5.04490        0.42347
H         -5.84371       -3.80097        0.55938
