111
-148.55698815
P         -2.54547       -2.20185       -0.62337
P          0.04306       -0.38315       -0.44770
C         -1.55098       -1.89602       -2.11047
C         -0.40983       -1.12996       -2.02251
C         -3.32883       -3.87695       -0.72953
C         -3.10335       -4.67240        0.53701
C         -1.93125       -2.42275       -3.32884
H         -2.83397       -3.00685       -3.39926
C         -1.15875       -2.18907       -4.45344
H         -1.45496       -2.60166       -5.40404
C         -0.01011       -1.42735       -4.35935
H          0.59202       -1.24551       -5.23432
C          0.36310       -0.89210       -3.13984
H          1.25409       -0.29060       -3.05107
Pd        -1.24425       -1.47271        1.14599
Cl        -2.76594       -2.28774        2.57030
Cl         0.11108       -0.57918        2.69679
C         -4.81069       -3.54440       -1.00233
C         -4.05461       -1.13440       -0.54122
H         -3.53879       -5.67201        0.46682
H         -2.03828       -4.78041        0.75499
H         -3.56483       -4.17295        1.39007
H         -5.44794       -4.33426       -0.57834
H         -5.00494       -3.55731       -2.08488
H         -3.96722       -0.53826        0.37702
C         -5.20528       -2.15551       -0.42578
C         -4.14249       -0.23066       -1.75214
H         -2.87070       -4.39078       -1.58519
H         -6.09660       -1.76295       -0.93644
H         -5.49581       -2.27073        0.62888
H         -4.19974       -0.82079       -2.66866
H         -5.02833        0.40778       -1.71328
H         -3.26389        0.41454       -1.83095
C         -1.12893        4.02264       -0.39105
C         -0.16809        3.55340       -1.32254
C          0.16989        2.21016       -1.29561
C         -0.46118        1.33768       -0.44744
C         -1.47153        1.76769        0.37277
C         -1.85560        3.09723        0.40006
O         -1.33264        5.41782       -0.22031
C          0.52544        4.47903       -2.33447
H          0.94890        1.82757       -1.93215
H         -1.94879        1.05444        1.01962
C         -3.01430        3.51937        1.31680
C          4.47119       -0.76489        0.54694
C          3.74773        0.38771        0.94563
C          2.40084        0.45538        0.63217
C          1.79307       -0.52747       -0.10340
C          2.50916       -1.59670       -0.57436
C          3.86198       -1.72344       -0.30342
O          5.79006       -0.97895        1.02858
C          4.38269        1.53878        1.74098
H          1.79603        1.27600        0.97822
H          1.99078       -2.33899       -1.15624
C          4.63968       -2.90234       -0.90957
C         -0.39927        5.63629       -2.75408
C          1.81853        5.03193       -1.71675
C          0.88583        3.70323       -3.62201
C         -4.04072        2.37285        1.46396
C         -2.45898        3.86117        2.70767
C         -3.77284        4.72603        0.73518
C         -0.47884        6.01072        0.75037
H          0.06743        6.25222       -3.52240
H         -1.33833        5.25222       -3.15110
H         -0.63312        6.28299       -1.91217
H          2.33008        5.69720       -2.41185
H          1.61415        5.58960       -0.80584
H          2.50044        4.22097       -1.46348
H          1.66458        2.96338       -3.44321
H          0.01158        3.19110       -4.02317
H          1.25903        4.38039       -4.39000
H         -4.92197        2.71044        2.00883
H         -4.36789        2.01906        0.48684
H         -3.62904        1.52971        2.01655
H         -1.74624        4.68087        2.65679
H         -3.25943        4.15202        3.38739
H         -1.94539        3.00185        3.13837
H         -4.63273        4.98328        1.35315
H         -3.13577        5.60494        0.67671
H         -4.13103        4.50555       -0.26985
H          0.11849        6.79353        0.28322
H         -1.08022        6.46518        1.53755
H          0.18189        5.25980        1.18559
C          5.84744       -1.69704        2.25476
C          5.87114        1.70759        1.38668
C          3.68760        2.87899        1.40718
C          4.22119        1.26276        3.24351
C          4.57838       -4.10029        0.04994
C          4.02415       -3.32268       -2.26391
C          6.10484       -2.51725       -1.18431
H          6.44840        0.83011        1.66644
H          5.99519        1.86089        0.31518
H          6.30241        2.56413        1.90421
H          4.21302        3.71371        1.87057
H          3.67416        3.04824        0.33117
H          2.66183        2.90602        1.77175
H          4.71289        0.33582        3.52890
H          4.65009        2.06920        3.83768
H          3.16748        1.17201        3.50643
H          3.54546       -4.39730        0.22987
H          5.10985       -4.95792       -0.36173
H          5.02504       -3.85857        1.01132
H          3.03623       -3.76337       -2.13900
H          3.93617       -2.46642       -2.93221
H          4.64674       -4.06911       -2.75671
H          6.15667       -1.64017       -1.82855
H          6.63861       -3.33079       -1.67496
H          6.63374       -2.28593       -0.26307
H          4.84369       -1.97272        2.58077
H          6.44769       -2.59715        2.12296
H          6.32102       -1.08106        3.01895
