72
-108.39695540
Cl         1.79483       -0.75588        2.72804
Cl        -1.12761        0.37389        2.71731
P         -1.09633        1.15543       -0.26257
P          2.26265       -0.10699       -0.37090
C          3.29898        1.46182       -0.11139
C          3.66090        1.58398        1.36995
C          4.56013        1.39316       -0.96505
C          3.30225       -1.68615       -0.14903
C          4.09620       -1.98766       -1.42627
C          1.44409       -0.34396       -2.05577
C          1.49177        0.87231       -2.95595
C         -1.13395       -0.17738       -1.49431
C          0.03076       -0.90254       -1.99725
C         -0.47521       -1.95659       -2.87923
C         -1.92163       -1.85857       -2.93288
C         -2.32672       -0.75453       -2.08359
C          2.47888        2.68805       -0.49119
H          2.76854        1.58993        1.99597
H          4.30160        0.77440        1.70827
H          5.11926        2.32796       -0.89889
H          4.32259        1.22388       -2.01460
C          4.27059       -1.59402        1.02638
H          4.61427       -1.10600       -1.79935
H          3.45975       -2.37131       -2.22292
H          2.05655       -1.12047       -2.52310
H          0.88357        1.67538       -2.54499
H          1.08409        0.64409       -3.94309
H          2.50718        1.24090       -3.10035
H          0.14218       -2.62721       -3.47996
H         -2.58706       -2.48709       -3.52860
Pd         0.52566        0.25261        1.18032
H         -3.34768       -0.42527       -1.87934
C          2.30090       -2.80128        0.10421
H          4.84754       -2.75580       -1.23562
H          3.76068       -1.30329        1.94233
H          4.73689       -2.56275        1.21156
H          5.07595       -0.88885        0.82993
H          1.79973       -2.65404        1.06009
H          1.54826       -2.83279       -0.68481
H          2.79702       -3.77344        0.13714
H          4.19812        2.51509        1.55754
H          5.22502        0.59688       -0.63501
H          1.52585        2.69255        0.03512
H          3.00531        3.60426       -0.21885
H          2.28849        2.74282       -1.55983
C         -2.74088        1.28696        0.46690
C         -3.11959        2.35107        1.24556
C         -4.43739        2.11650        1.64100
C         -4.80679        0.91725        1.08167
O         -3.77407        0.39813        0.35470
H         -2.50076        3.19772        1.49861
H         -5.04438        2.75094        2.26600
H         -5.77189        0.43836        1.19220
C         -0.76740        2.77201       -0.98257
C         -1.14521        3.11018       -2.25799
C         -0.75103        4.43370       -2.46124
C         -0.15464        4.84870       -1.29535
O         -0.15885        3.83708       -0.37727
H         -1.65601        2.46705       -2.95731
H         -0.89260        5.01756       -3.35603
H          0.26288        5.83128       -1.11357
Fe        -1.27335       -2.12558       -0.99007
C         -2.98035       -2.84774       -0.10549
C         -2.22948       -2.05504        0.84789
C         -0.91557       -2.64341        0.98462
C         -0.84481       -3.79011        0.09717
C         -2.13049       -3.93262       -0.56212
H         -4.01590       -2.67108       -0.40514
H         -2.58551       -1.16391        1.36653
H         -0.14348       -2.29553        1.67280
H         -0.00557       -4.48382        0.00821
H         -2.41051       -4.71815       -1.26787
