58
-89.86765313
P          1.74173       -0.04040        0.70472
C          1.55846        1.74402        0.57383
C          1.36225        2.27742       -0.67985
C          1.19273        3.64052       -0.83411
C          1.22638        4.46369        0.27355
C          1.43993        3.92797        1.52839
C          1.61160        2.56369        1.67811
H          1.80161        2.14173        2.65108
H          1.34673        1.61678       -1.53234
C          3.33753       -0.57023        0.07878
C          4.29739        0.36311       -0.23922
C          5.52144       -0.05060       -0.73299
C          5.77308       -1.39745       -0.90593
C          4.80553       -2.33006       -0.58742
C          3.58222       -1.91328       -0.09306
H          2.81276       -2.62898        0.15069
H          4.08280        1.41109       -0.10562
C          1.56861       -0.65899        2.42556
C          0.26649       -0.27444        3.10802
C         -0.95099       -1.03255        2.60535
P         -1.53790       -0.52429        0.93989
C         -1.89132        1.23565        0.82468
C         -2.02281        2.02557        1.94401
C         -2.26995        3.37915        1.80300
C         -2.39401        3.93109        0.54317
C         -2.28083        3.13215       -0.57690
C         -2.03135        1.78041       -0.43162
H         -1.94717        1.13655       -1.29279
H         -1.94848        1.58423        2.92408
C         -2.99124       -1.49867        0.54206
C         -4.20914       -0.88130        0.37131
C         -5.32334       -1.63573        0.05097
C         -5.20740       -3.00383       -0.09763
C         -3.98233       -3.61837        0.07246
C         -2.86960       -2.86114        0.39339
H         -1.90391       -3.32520        0.51901
H         -4.28162        0.18849        0.48288
Pd         0.06726       -0.77949       -0.71545
Cl         1.57131       -0.64972       -2.38229
Cl        -1.65312       -1.12647       -2.12409
H         -0.74941       -2.10457        2.56758
H         -1.80624       -0.89744        3.27216
H          0.36795       -0.43607        4.19261
H          0.09865        0.80279        2.99322
H          1.68301       -1.74405        2.39575
H          2.43267       -0.26697        2.96782
H          1.03079        4.05643       -1.81486
H          1.47264        4.57223        2.39162
H          6.27469        0.67746       -0.98555
H          4.99999       -3.38064       -0.72776
H         -2.36540        4.00251        2.67685
H         -2.38198        3.55934       -1.56094
H         -6.27817       -1.15544       -0.08638
H         -3.89089       -4.68518       -0.04919
H          1.08863        5.52642        0.15835
H          6.72524       -1.72125       -1.29357
H         -2.58259        4.98664        0.43414
H         -6.07397       -3.59269       -0.35064
