59
-75.80688127
Cl         1.58295        0.64029        2.35496
P          1.53050        0.06487       -0.87719
P         -1.60303       -0.10068       -0.79403
C          0.56341        0.14974       -2.44403
H          0.29533        1.19001       -2.63994
H          1.19378       -0.18964       -3.27189
C         -0.66622       -0.69403       -2.27161
H         -0.39581       -1.73956       -2.10050
H         -1.32380       -0.65994       -3.14618
C          2.57497       -1.46607       -0.84985
H          2.64762       -1.80972       -1.88901
C          2.85870        1.34973       -0.68399
H          2.73668        1.75715        0.32711
C         -3.02538       -1.23047       -0.42345
H         -3.36353       -0.97303        0.58787
C         -2.61546        1.38539       -1.25977
H         -2.10331        1.88280       -2.09223
C          3.93868       -0.94902       -0.36352
H          3.97939       -1.03501        0.73117
H          4.75090       -1.58793       -0.74259
C          4.15990        0.53116       -0.77372
H          4.53192        0.57159       -1.80674
H          4.94657        0.99486       -0.15933
C         -4.05726       -0.75994       -1.46155
H         -3.87117       -1.30072       -2.40094
H         -5.07323       -1.05250       -1.15359
C         -3.96743        0.77519       -1.71112
H         -4.77788        1.27761       -1.16514
H         -4.15541        1.00185       -2.77109
C          1.96634       -2.55669        0.02104
H          0.95042       -2.76948       -0.33585
H          1.84436       -2.16964        1.04132
C          2.77326        2.47507       -1.71074
H          3.71977        3.03360       -1.70651
H          2.70337        2.03511       -2.71402
C         -2.68348       -2.71490       -0.49295
H         -3.61566       -3.29567       -0.52878
H         -2.18108       -2.92321       -1.44560
C         -2.77139        2.34535       -0.07926
H         -3.63153        3.00409       -0.26508
H         -3.04289        1.76095        0.81015
C          2.78732       -3.83720        0.03888
H          2.32305       -4.61233        0.65293
H          3.78854       -3.66170        0.43629
H          2.90677       -4.24253       -0.96767
C          1.61584        3.42751       -1.46074
H          0.66100        2.90388       -1.48251
H          1.56976        4.22382       -2.20716
H          1.69875        3.90018       -0.48011
C         -1.83192       -3.17991        0.67766
H         -2.36090       -3.05366        1.62423
H         -0.91332       -2.59911        0.75372
H         -1.55271       -4.23257        0.59327
C         -1.54175        3.19479        0.19981
H         -1.30291        3.83239       -0.65327
H         -1.68408        3.84735        1.06423
H         -0.66545        2.58008        0.40222
Cl        -1.59688       -0.13393        2.42375
Pd         0.00525        0.07867        0.86868
