59
-75.81001237
Cl         1.73372        0.54907        2.19604
P          1.58819       -0.03733       -0.83764
P         -1.62388       -0.09746       -0.79509
C          0.57666        0.35233       -2.32995
H          0.29989        1.40939       -2.30761
H          1.18807        0.18743       -3.22281
C         -0.64288       -0.52182       -2.29920
H         -0.36299       -1.57727       -2.24827
H         -1.27730       -0.38850       -3.18144
C          2.48810       -1.62699       -1.19475
H          2.29556       -1.80374       -2.26178
C          3.05428        1.08851       -0.65581
H          3.18701        1.23924        0.42218
C         -2.93628       -1.36007       -0.45311
H         -3.30175       -1.14733        0.55930
C         -2.76505        1.29636       -1.25883
H         -2.30050        1.80790       -2.11066
C          3.97148       -1.26658       -1.00470
H          4.28934       -1.54412        0.00740
H          4.60038       -1.86404       -1.68188
C          4.21632        0.25030       -1.21534
H          4.31969        0.46079       -2.28875
H          5.16838        0.56319       -0.76010
C         -4.00204       -0.96791       -1.48908
H         -3.75014       -1.45199       -2.44391
H         -4.98430       -1.37610       -1.20392
C         -4.07029        0.57505       -1.68258
H         -4.90017        0.97579       -1.08428
H         -4.32472        0.82109       -2.72412
C          1.99709       -2.82599       -0.38456
H          2.48689       -3.73486       -0.76094
H          0.92975       -2.97155       -0.59478
C          2.87596        2.43620       -1.34472
H          3.84204        2.95969       -1.36350
H          2.62051        2.26667       -2.39864
C         -2.46393       -2.80796       -0.53744
H         -3.34061       -3.46595       -0.61495
H         -1.91461       -2.95350       -1.47556
C         -2.98898        2.28078       -0.11330
H         -3.84531        2.92367       -0.36126
H         -3.29874        1.71730        0.77670
C          2.21810       -2.72153        1.11800
H          1.74217       -3.54358        1.65784
H          1.81343       -1.79342        1.51915
H          3.27750       -2.74421        1.37676
C          1.82800        3.30786       -0.67408
H          0.85765        2.81334       -0.66477
H          1.70389        4.26797       -1.18009
H          2.09083        3.51314        0.36542
C         -1.61566       -3.22149        0.65485
H         -1.24895       -4.24653        0.56483
H         -2.18399       -3.15581        1.58462
H         -0.75024       -2.56974        0.77052
C         -1.78205        3.14725        0.20503
H         -1.44839        3.69941       -0.67552
H         -1.99845        3.87716        0.98845
H         -0.94311        2.54645        0.55323
Cl        -1.66860        0.32185        2.35103
Pd        -0.01176        0.08150        0.86572
