171
-217.84801129
P         -1.58328        0.44460       -0.32259
P          1.60693       -0.30204       -0.23307
C         -0.81201        1.49096       -1.56730
C          0.97022       -1.18197       -1.66233
C          0.02903        0.95965       -2.53961
C          0.68874        1.84031       -3.41859
C          0.45847        3.20188       -3.31430
C         -0.39703        3.70712       -2.35881
C         -1.02420        2.84561       -1.48086
C          1.19475       -2.53379       -1.74941
C          0.69240       -3.25240       -2.81664
C         -0.04633       -2.60806       -3.78653
C         -0.28658       -1.24571       -3.71505
C          0.24333       -0.50967       -2.63757
Cl         1.45161        0.44618        3.01555
Cl        -1.70278       -0.22004        2.86236
C         -1.07860       -0.58280       -4.78724
C          1.63579        1.34178       -4.45355
H         -0.57089        4.76860       -2.29151
H         -1.68353        3.23376       -0.72183
H          1.76709       -3.02787       -0.98071
H          0.87793       -4.31133       -2.89152
H          0.96449        3.86973       -3.99102
H         -0.44687       -3.16585       -4.61619
C         -3.50468       -3.37133       -1.80755
C         -2.61616       -3.43843       -0.74116
C         -2.01310       -2.25898       -0.32637
C         -2.28733       -1.07368       -0.96199
C         -3.16696       -1.02286       -2.01542
C         -3.80140       -2.17848       -2.45624
H         -3.99973       -4.26617       -2.13445
H         -1.34050       -2.26002        0.51405
H         -3.36691       -0.06964       -2.47467
C         -4.81267        2.66061        1.96998
C         -3.48797        3.03723        2.15745
C         -2.51006        2.36575        1.43368
C         -2.85410        1.35893        0.56600
C         -4.16782        0.99895        0.39756
C         -5.17826        1.64473        1.09517
H         -5.57261        3.16587        2.53574
H         -1.46803        2.60211        1.56376
H         -4.40911        0.19198       -0.27159
C          4.23217       -3.06501        2.23563
C          2.85299       -3.21264        2.31015
C          2.06932       -2.37583        1.52608
C          2.64653       -1.40375        0.74597
C          4.01072       -1.25371        0.71004
C          4.83504       -2.09105        1.45029
H          4.85747       -3.72737        2.80494
H          0.99761       -2.46808        1.53102
H          4.42893       -0.47209        0.10243
C          3.96320        3.40373       -1.30954
C          2.92288        3.51221       -0.39549
C          2.21449        2.35998       -0.08006
C          2.52260        1.16811       -0.68654
C          3.53655        1.08222       -1.60913
C          4.28792        2.20593       -1.93402
H          4.55184        4.27580       -1.52648
H          1.42133        2.37990        0.64684
H          3.73844        0.12856       -2.06654
Pd        -0.03526        0.05928        1.38115
C         -0.81463       -5.06911       -0.12901
C         -2.31195       -4.74214        0.00979
C         -3.12251       -5.92757       -0.54813
C         -2.67343       -4.56309        1.49677
H         -0.19584       -4.24983        0.23256
H         -0.55485       -5.96388        0.43630
H         -0.55674       -5.24407       -1.17269
H         -2.89695       -6.84172        0.00095
H         -4.19361       -5.74593       -0.46117
H         -2.88530       -6.10631       -1.59674
H         -3.73269       -4.33291        1.60901
H         -2.46290       -5.47056        2.06236
H         -2.10920       -3.74906        1.94926
C         -6.22059       -2.55876       -2.96817
C         -4.85971       -2.15947       -3.56843
C         -4.46774       -3.15842       -4.67334
C         -5.00004       -0.76032       -4.19967
H         -6.18658       -3.56248       -2.54592
H         -6.50669       -1.87146       -2.17210
H         -7.00261       -2.54124       -3.72705
H         -3.48636       -2.91996       -5.08115
H         -4.43136       -4.17843       -4.29310
H         -5.18726       -3.13576       -5.49164
H         -5.32244       -0.02646       -3.46157
H         -4.05721       -0.42482       -4.62912
H         -5.74173       -0.76932       -4.99825
C         -3.54833        3.64337        4.58485
C         -3.13995        4.12647        3.18158
C         -3.89619        5.42178        2.83293
C         -1.63026        4.43422        3.19125
H         -4.62001        3.45621        4.64177
H         -3.03349        2.71588        4.83508
H         -3.29701        4.38541        5.34242
H         -4.97492        5.27641        2.87313
H         -3.64294        6.22030        3.53013
H         -3.64030        5.75747        1.82809
H         -1.05034        3.55349        3.46672
H         -1.29924        4.77679        2.21164
H         -1.39870        5.21852        3.91170
C         -7.60982        2.02038        1.74922
C         -6.63209        1.19654        0.88999
C         -6.76325       -0.28714        1.28340
C         -7.01298        1.37299       -0.59179
H         -8.63663        1.69188        1.58877
H         -7.38992        1.90750        2.81065
H         -7.55865        3.07903        1.49537
H         -7.79029       -0.63269        1.16712
H         -6.12737       -0.91937        0.66455
H         -6.47130       -0.43638        2.32267
H         -8.04695        1.07654       -0.76733
H         -6.90292        2.41354       -0.89647
H         -6.37904        0.76690       -1.23765
C          2.41614       -5.66232        2.55303
C          2.23242       -4.28685        3.21505
C          0.72822       -4.03131        3.43850
C          2.92040       -4.27632        4.59474
H          3.47276       -5.88904        2.41266
H          1.97909       -6.45220        3.16364
H          1.93703       -5.68613        1.57443
H          0.31353       -4.74678        4.14835
H          0.55712       -3.03004        3.83384
H          0.16904       -4.13493        2.51110
H          3.97107       -4.55326        4.52314
H          2.86151       -3.28558        5.04501
H          2.44217       -4.98316        5.27263
C          6.82295       -0.81405        0.50534
C          6.36460       -1.96117        1.42738
C          6.97917       -3.27555        0.91261
C          6.87071       -1.67190        2.85245
H          7.90976       -0.73199        0.49976
H          6.50016       -0.98446       -0.52147
H          6.42177        0.14210        0.84100
H          6.61316       -3.50506       -0.08800
H          8.06592       -3.20655        0.86717
H          6.72539       -4.11271        1.56182
H          7.95372       -1.55048        2.86495
H          6.42337       -0.75690        3.24030
H          6.61837       -2.48260        3.53490
C          1.32042        4.79936        1.09821
C          2.61512        4.86252        0.26492
C          2.43654        5.94120       -0.82052
C          3.78204        5.24507        1.19159
H          1.08605        5.77493        1.52385
H          0.47630        4.49379        0.48055
H          1.41728        4.09600        1.92492
H          3.35085        6.08633       -1.39419
H          1.64634        5.66002       -1.51568
H          2.16948        6.90000       -0.37644
H          3.59296        6.19814        1.68520
H          3.92517        4.48736        1.96181
H          4.71362        5.33442        0.63361
C          5.37429        3.23962       -3.96049
C          5.49092        2.14048       -2.88651
C          5.57842        0.77514       -3.59653
C          6.77989        2.35499       -2.07297
H          6.20476        3.18381       -4.66413
H          4.44943        3.13629       -4.52591
H          5.38564        4.23436       -3.51731
H          6.41481        0.75554       -4.29508
H          5.73174       -0.03223       -2.88103
H          4.67015        0.56724       -4.16125
H          7.65983        2.30630       -2.71415
H          6.77621        3.32703       -1.58070
H          6.88084        1.59156       -1.30235
H         -0.44801       -0.33886       -5.64305
H          2.55412        1.92852       -4.44837
H         -1.53640        0.34059       -4.42968
H         -1.87824       -1.23373       -5.14102
H          1.19893        1.41501       -5.45042
H          1.91091        0.30095       -4.27852
