111
-148.55553316
P         -2.24285       -2.11473       -1.35388
P          0.14274       -0.19489       -0.59453
C         -1.14784       -1.49839       -2.65400
C         -0.11976       -0.64399       -2.32139
C         -2.37364       -3.95849       -1.38543
C         -1.48485       -4.59031       -0.33533
C         -1.33592       -1.87728       -3.96757
H         -2.13160       -2.56089       -4.21556
C         -0.49882       -1.38224       -4.95240
H         -0.64536       -1.67456       -5.97938
C          0.52363       -0.51443       -4.61979
H          1.17530       -0.12821       -5.38620
C          0.71529       -0.14642       -3.29994
H          1.51412        0.52361       -3.02624
Pd        -1.43607       -1.34292        0.66519
Cl        -3.27264       -2.18294        1.63812
Cl        -0.47492       -0.56155        2.53334
C         -3.88002       -4.19308       -1.17401
C         -4.02508       -1.66215       -1.59356
H         -1.56086       -5.68003       -0.35096
H         -0.43684       -4.32065       -0.48757
H         -1.76809       -4.25541        0.66432
H         -4.07398       -4.28209       -0.09603
H         -4.18315       -5.15734       -1.60988
H         -4.33233       -1.17988       -0.65613
C         -4.72582       -3.02629       -1.75689
C         -4.22194       -0.72998       -2.77230
H         -2.07298       -4.27362       -2.39316
H         -4.90346       -3.20626       -2.82586
H         -5.72438       -2.99956       -1.29543
H         -3.96222       -1.22690       -3.70800
H         -5.26111       -0.40291       -2.85410
H         -3.59036        0.15668       -2.69469
C         -1.24383        4.05038        0.29520
C         -2.14339        3.10899       -0.26944
C         -1.66399        1.84328       -0.56800
C         -0.38468        1.47810       -0.23548
C          0.43477        2.33625        0.45100
C          0.02526        3.62129        0.76089
O         -1.58402        5.42800        0.34450
C         -3.61715        3.43305       -0.55912
H         -2.29000        1.11675       -1.05610
H          1.40566        1.98611        0.75157
C          0.96072        4.53370        1.56863
C          4.37871       -0.99623        0.88480
C          4.14427        0.06797       -0.02299
C          2.84607        0.29088       -0.45106
C          1.82111       -0.53483       -0.06640
C          2.06510       -1.63360        0.71531
C          3.33865       -1.91334        1.18127
O          5.63966       -1.12107        1.52637
C          5.26348        0.99826       -0.51741
H          2.61556        1.13229       -1.08105
H          1.23517       -2.26509        0.98058
C          3.55820       -3.17027        2.03715
C         -4.50321        2.21087       -0.22977
C         -4.12767        4.59442        0.31345
C         -3.77294        3.78617       -2.04573
C          0.15792        5.53335        2.42097
C          1.82332        3.70001        2.54345
C          1.88929        5.28958        0.60664
C         -1.22546        6.14128       -0.83199
H         -5.55970        2.45910       -0.32793
H         -4.30671        1.37685       -0.89868
H         -4.33057        1.87299        0.79174
H         -3.61247        5.52272        0.08080
H         -5.19326        4.76212        0.15884
H         -3.96730        4.37959        1.36942
H         -3.16643        4.65133       -2.30713
H         -3.45511        2.95587       -2.67586
H         -4.81072        4.01486       -2.28673
H         -0.41505        6.21461        1.79638
H         -0.54074        5.00826        3.07146
H          0.81777        6.13474        3.04575
H          2.53874        3.07198        2.01542
H          2.39543        4.34877        3.20625
H          1.19645        3.05800        3.16176
H          1.32043        5.92338       -0.07022
H          2.58645        5.92329        1.15422
H          2.46919        4.59245        0.00220
H         -0.66416        7.03456       -0.55739
H         -0.61509        5.51496       -1.48380
H         -2.12353        6.44778       -1.36762
C          5.73909       -0.40216        2.74945
C          6.60986        0.25576       -0.59605
C          4.95276        1.51539       -1.94061
C          5.37765        2.20464        0.42700
C          2.56782       -4.28648        1.63248
C          4.97639       -3.73559        1.84064
C          3.32456       -2.82217        3.51510
H          6.94194       -0.07009        0.38637
H          6.52471       -0.62668       -1.22930
H          7.38754        0.89695       -1.01028
H          5.80034        2.06859       -2.34460
H          4.74110        0.68696       -2.61618
H          4.09876        2.19106       -1.94746
H          5.59677        1.89040        1.44466
H          6.16995        2.87962        0.10438
H          4.44470        2.76679        0.44735
H          2.80683       -5.21918        2.14287
H          1.54268       -4.03218        1.89781
H          2.60967       -4.47201        0.55950
H          5.16334       -3.94486        0.78792
H          5.73404       -3.03398        2.18054
H          5.11024       -4.66130        2.39975
H          2.31442       -2.44161        3.66517
H          4.01923       -2.05777        3.85467
H          3.45311       -3.69953        4.14836
H          4.79864        0.10435        2.97044
H          5.98032       -1.09065        3.55917
H          6.54013        0.33339        2.67829
