75
-122.81842306
P          1.86281       -0.55993        0.00076
C          1.71025       -1.56696       -1.48029
C          1.67075       -0.98596       -2.72691
C          1.64265       -1.78216       -3.85673
C          1.65326       -3.15699       -3.72905
C          1.68735       -3.73635       -2.47607
C          1.71824       -2.93661       -1.34765
H          1.76324       -3.37320       -0.36222
H          1.69198       -4.80925       -2.37619
H          1.62731       -3.77904       -4.60879
H          1.60720       -1.32945       -4.83393
H          1.65424        0.08809       -2.81015
C          3.20273       -1.27529        0.96712
C          2.97511       -1.81099        2.21375
C          4.02032       -2.37627        2.92073
C          5.28580       -2.41009        2.36965
C          5.50731       -1.88521        1.11204
C          4.45953       -1.32012        0.40749
H          4.61273       -0.92241       -0.58370
H          6.49310       -1.91785        0.67798
H          6.10117       -2.84954        2.92077
H          3.84639       -2.78785        3.90136
H          1.98304       -1.78003        2.63401
C          2.22440        1.14911       -0.43419
C          3.38675        1.79828       -0.08954
C          3.55534        3.14536       -0.37790
C          2.51027        3.83391       -0.99248
C          1.33415        3.19956       -1.32579
C          1.18751        1.82975       -1.05469
O         -0.00246        1.14876       -1.36065
C         -1.19253        1.82540       -1.04548
C         -1.34559        3.19524       -1.31267
C         -2.52030        3.82580       -0.96728
C         -3.55385        3.13503       -0.33538
C         -3.38513        1.78438       -0.06587
C         -2.22403        1.13930       -0.42220
P         -1.85807       -0.57264       -0.00351
C         -3.19527       -1.29532        0.96048
C         -4.45158       -1.34124        0.39982
C         -5.49845       -1.91157        1.10152
C         -5.27649       -2.44035        2.35740
C         -4.01153       -2.40509        2.90960
C         -2.96721       -1.83463        2.20546
H         -1.97560       -1.80249        2.62667
H         -3.83732       -2.81967        3.88892
H         -6.09113       -2.88393        2.90630
H         -6.48383       -1.94507        0.66662
H         -4.60517       -0.93980       -0.58983
C         -1.70950       -1.56705       -1.49319
C         -1.66318       -0.97549       -2.73460
C         -1.63851       -1.76182       -3.87138
C         -1.65929       -3.13761       -3.75590
C         -1.70008       -3.72771       -2.50816
C         -1.72753       -2.93775       -1.37277
H         -1.77752       -3.38274       -0.39134
H         -1.71255       -4.80139       -2.41775
H         -1.63606       -3.75203       -4.64106
H         -1.59780       -1.30073       -4.84445
H         -1.63830        0.09906       -2.80840
Pd        -0.00319       -0.07773        1.37947
Cl        -1.56408        0.85366        2.72163
Cl         1.58390        0.88500        2.67312
H         -4.15851        1.24299        0.44959
C         -4.81732        3.82290        0.04227
H         -5.63137        3.53014       -0.62205
H         -4.71136        4.90699       -0.01332
H         -5.10706        3.56992        1.06304
H         -2.63157        4.87438       -1.17986
S         -0.01086        4.07528       -2.08050
H          2.61394        4.88445       -1.19936
C          4.80028        3.85330        0.02219
H          4.15996        1.26340        0.43288
H          4.99618        4.70542       -0.62988
H          4.72205        4.22234        1.04552
H          5.66393        3.18917       -0.03131
