72
-98.10151616
Fe        -0.01761        2.85990       -0.00591
P          1.80495       -0.00140       -0.05647
P         -1.80582       -0.01907        0.05685
C          1.39204        1.61394        0.70673
C          0.39564        1.83081        1.73923
C          0.34299        3.25428        2.01569
C          1.34258        3.91195        1.19530
C          2.00617        2.89615        0.39747
C         -1.41168        1.60371       -0.69982
C         -2.03054        2.88014       -0.37455
C         -1.37161        3.90767       -1.16255
C         -0.37369        3.26256       -1.99648
C         -0.41958        1.83552       -1.73377
C          3.15043       -0.77159        0.96941
C          4.35661        0.08454        0.54811
C          2.86655        0.32348       -1.55223
C          4.28701        0.48109       -0.95565
C         -3.13257       -0.81070       -0.97700
C         -4.35354        0.02951       -0.56637
C         -2.88282        0.28845        1.54499
C         -4.30001        0.43071        0.93696
H         -0.21956        1.05989        2.19910
H         -0.31246        3.74058        2.74127
H          1.56761        4.98042        1.19018
H          2.80649        3.06535       -0.32532
H         -2.82866        3.03866        0.35332
H          0.19784        1.07195       -2.20312
Cl         1.56362       -3.06039       -0.46703
Cl        -1.51248       -3.09443        0.47890
Pd         0.00488       -1.50381       -0.00204
H          3.28373       -1.80052        0.61539
C          2.86767       -0.76567        2.47414
H          2.51796        1.26123       -2.00102
C          2.79771       -0.80703       -2.57750
H          5.29881       -0.43711        0.77807
H          4.36569        0.99139        1.17066
H          4.65416        1.50815       -1.09861
H          4.98021       -0.14969       -1.52939
H         -1.60158        4.97537       -1.14569
H          0.27716        3.75931       -2.71965
H          3.82147       -0.71238        3.01741
H          3.62660       -0.69509       -3.29041
H         -3.25334       -1.84037       -0.62040
C         -2.83885       -0.80558       -2.48024
H         -2.54911        1.22866        1.99990
C         -2.80833       -0.84454        2.56693
H         -5.28674       -0.50575       -0.80171
H         -4.37067        0.93466       -1.19125
H         -4.67802        1.45465        1.07392
H         -4.99171       -0.20503        1.50705
H         -3.78846       -0.74814       -3.03038
H         -2.98718       -1.79382        2.04551
C          2.08709       -1.98530        2.94125
H          1.15743       -2.10208        2.38648
H          2.65921       -2.90177        2.78464
H          1.83542       -1.93206        4.00282
C          1.48514       -0.87857       -3.33763
H          1.30981        0.03069       -3.91572
H          1.46107       -1.71891       -4.03521
H          0.64518       -0.99965       -2.65585
C         -2.06026       -2.02857       -2.94255
H         -1.13507       -2.15062       -2.38131
H         -2.63790       -2.94244       -2.79111
H         -1.80069       -1.97560       -4.00224
C         -1.49954       -0.90390        3.33447
H         -0.65479       -1.01600        2.65713
H         -1.33636        0.00657        3.91423
H         -1.47103       -1.74473        4.03129
H          2.33880        0.16007        2.73409
H          2.99014       -1.75588       -2.06019
H         -2.30444        0.11803       -2.73632
H         -3.64271       -0.74379        3.27509
