171
-217.84843034
P         -1.60659        0.43201       -0.32633
P          1.60719       -0.29457       -0.23387
C         -0.83510        1.48419       -1.56668
C          0.97083       -1.17565       -1.66216
C          0.01639        0.96211       -2.53492
C          0.67511        1.85007       -3.40725
C          0.43519        3.20970       -3.29985
C         -0.42951        3.70597       -2.34801
C         -1.05643        2.83725       -1.47704
C          1.20149       -2.52624       -1.75114
C          0.70321       -3.24524       -2.82012
C         -0.03591       -2.60221       -3.79070
C         -0.28247       -1.24109       -3.71699
C          0.24091       -0.50528       -2.63637
Cl         1.44953        0.45608        3.00044
Cl        -1.70956       -0.27523        2.83564
C         -1.07059       -0.57700       -4.79140
C          1.63207        1.36192       -4.43801
H         -0.61046        4.76610       -2.27782
H         -1.72234        3.21872       -0.72030
H          1.77578       -3.01861       -0.98269
H          0.89335       -4.30322       -2.89664
H          0.94118        3.88315       -3.97101
H         -0.43076       -3.15994       -4.62310
C         -3.45145       -3.42836       -1.79848
C         -2.57520       -3.46861       -0.72095
C         -2.00111       -2.27370       -0.30927
C         -2.29146       -1.09900       -0.95748
C         -3.16148       -1.07445       -2.01997
C         -3.76651       -2.24682       -2.45880
H         -3.92011       -4.33661       -2.12738
H         -1.33766       -2.25454        0.53817
H         -3.37370       -0.12983       -2.49110
C         -4.82678        2.66007        1.96223
C         -3.49987        3.01955        2.16211
C         -2.52692        2.34071        1.43914
C         -2.87855        1.34316        0.56355
C         -4.19527        0.99893        0.38275
C         -5.20130        1.65646        1.07832
H         -5.59053        3.16651        2.52333
H         -1.48305        2.56628        1.57385
H         -4.43128        0.19915       -0.29572
C          4.23747       -3.05516        2.23282
C          2.85812       -3.18617        2.32999
C          2.07169       -2.35116        1.54670
C          2.64757       -1.39558        0.74534
C          4.01276       -1.26186        0.68678
C          4.83904       -2.09848        1.42569
H          4.86354       -3.71668        2.80239
H          0.99926       -2.43013        1.57083
H          4.43061       -0.49306        0.06286
C          3.95175        3.41710       -1.31788
C          2.91057        3.52336       -0.40462
C          2.20730        2.36878       -0.08640
C          2.52040        1.17662       -0.68984
C          3.53444        1.09323       -1.61268
C          4.28132        2.21934       -1.93990
H          4.53692        4.29113       -1.53628
H          1.41390        2.38739        0.64023
H          3.73912        0.14007       -2.06983
Pd        -0.04277        0.07797        1.37025
C         -0.74689       -5.05938       -0.08477
C         -2.25112       -4.76065        0.04170
C         -3.03474       -5.96564       -0.51293
C         -2.62658       -4.57815        1.52478
H         -0.47377       -5.94507        0.48845
H         -0.47841       -5.23644       -1.12542
H         -0.14674       -4.22563        0.27506
H         -2.79717       -6.87076        0.04595
H         -4.10972       -5.80305       -0.43682
H         -2.78508       -6.14900       -1.55785
H         -3.69106       -4.36885        1.62794
H         -2.40168       -5.47699        2.09856
H         -2.08247       -3.74939        1.97511
C         -6.15722       -2.72998       -3.02714
C         -4.80234       -2.26395       -3.59223
C         -4.34337       -3.23492       -4.69618
C         -4.99204       -0.86606       -4.21283
H         -6.08908       -3.73608       -2.61494
H         -6.49162       -2.06522       -2.23119
H         -6.92201       -2.73826       -3.80355
H         -3.36661       -2.94888       -5.08347
H         -4.26649       -4.25473       -4.32131
H         -5.04756       -3.23973       -5.52800
H         -5.35323       -0.15337       -3.47175
H         -4.05861       -0.48804       -4.62725
H         -5.72261       -0.89795       -5.02102
C         -3.57642        3.61787        4.59110
C         -3.14573        4.09926        3.19391
C         -3.87841        5.40701        2.84169
C         -1.63157        4.38311        3.22047
H         -3.07771        2.68235        4.84410
H         -3.32280        4.35397        5.35368
H         -4.65124        3.44601        4.63576
H         -4.95955        5.27699        2.86808
H         -3.62198        6.19890        3.54526
H         -3.60545        5.74295        1.84143
H         -1.06836        3.49170        3.49625
H         -1.28534        4.72597        2.24628
H         -1.39496        5.15956        3.94774
C         -6.87629        0.16920       -0.12962
C         -6.68239        1.28778        0.91371
C         -7.46824        2.52773        0.44934
C         -7.23432        0.79640        2.26421
H         -7.93215       -0.07622       -0.24281
H         -6.50233        0.47587       -1.10624
H         -6.35722       -0.74121        0.16975
H         -8.52165        2.28955        0.30293
H         -7.40768        3.33269        1.18080
H         -7.07245        2.90242       -0.49447
H         -7.16581        1.57247        3.02562
H         -8.28121        0.50647        2.17606
H         -6.67236       -0.06827        2.61682
C          0.73635       -3.98488        3.47977
C          2.24242       -4.23628        3.26596
C          2.92919       -4.17718        4.64491
C          2.43608       -5.63068        2.64757
H          0.18080       -4.11405        2.55345
H          0.32438       -4.68581        4.20551
H          0.55778       -2.97569        3.85095
H          2.45861       -4.86893        5.34340
H          3.98315       -4.44348        4.58148
H          2.85887       -3.17417        5.06538
H          1.95996       -5.68769        1.66891
H          3.49424       -5.85608        2.51731
H          2.00163       -6.40364        3.28127
C          6.82638       -0.85038        0.44183
C          6.36945       -1.98636        1.37817
C          6.96045       -3.31115        0.86266
C          6.90154       -1.69372        2.79314
H          7.91377       -0.77933        0.42054
H          6.48767       -1.02437       -0.57921
H          6.43940        0.11191        0.77662
H          6.70659       -4.14097        1.52123
H          6.57636       -3.54268       -0.13068
H          8.04710       -3.25544        0.80011
H          7.98591       -1.58462        2.78753
H          6.47093       -0.77114        3.18195
H          6.65119       -2.49700        3.48501
C          2.41025        5.94768       -0.83918
C          2.59516        4.87445        0.25061
C          3.75989        5.26753        1.17560
C          1.30090        4.80714        1.08431
H          1.62141        5.65927       -1.53292
H          2.13804        6.90681       -0.39897
H          3.32356        6.09545       -1.41378
H          3.90813        4.51331        1.94827
H          4.69071        5.36109        0.61703
H          3.56482        6.22099        1.66614
H          1.06090        5.78303        1.50608
H          0.45837        4.49421        0.46812
H          1.40207        4.10764        1.91379
C          5.37000        3.25915       -3.96264
C          5.48514        2.15681       -2.89167
C          5.57328        0.79376       -3.60597
C          6.77324        2.36887       -2.07613
H          4.44550        3.15816       -4.52908
H          5.38208        4.25270       -3.51684
H          6.20093        3.20468       -4.66585
H          6.40983        0.77674       -4.30440
H          5.72685       -0.01589       -2.89317
H          4.66520        0.58729       -4.17153
H          6.87414        1.60226       -1.30868
H          7.65379        2.32363       -2.71672
H          6.76821        3.33882       -1.57976
H         -1.54218        0.33794       -4.43003
H          2.55165        1.94626       -4.41507
H         -1.85921       -1.23261       -5.16037
H         -0.43365       -0.31797       -5.63802
H          1.20639        1.44897       -5.43862
H          1.90271        0.31824       -4.27338
