105
-153.06946158
Cl        -1.01387        2.11377       -2.82816
Pd         0.05239        1.53258       -0.92634
P          1.38911        0.75057        0.81433
N          0.56729       -0.42682        1.82525
C          0.01545       -1.68326        1.61786
C         -0.10044       -2.30348        0.34957
C         -0.79044       -3.52749        0.23395
C         -0.90955       -4.16157       -1.13244
C         -1.39471       -5.61983       -1.12072
C         -2.54549       -5.81026       -0.12823
C         -2.10272       -5.43383        1.29372
C         -1.33856       -4.13616        1.36458
C         -1.17074       -3.53559        2.60508
C         -0.51103       -2.34062        2.72970
H         -0.42018       -1.87561        3.69599
H         -1.58558       -4.01392        3.47621
H         -2.97392       -5.36867        1.95822
H         -3.38992       -5.17681       -0.42730
H         -1.69419       -5.93968       -2.12876
H         -1.59081       -3.55069       -1.73635
C          0.63349       -1.80671       -0.83812
C         -0.06848       -1.17671       -1.90222
C          0.62390       -0.91223       -3.08777
C          1.94586       -1.24900       -3.22503
C          2.63651       -1.90008       -2.20966
C          4.06538       -2.31326       -2.47583
C          4.76337       -3.04160       -1.31305
C          3.78149       -3.90442       -0.51526
C          2.63894       -3.04247        0.03937
C          1.97231       -2.19923       -1.01886
H          1.88951       -3.67991        0.52445
H          4.29738       -4.44115        0.29354
H          5.21487       -2.30505       -0.63921
H          4.63710       -1.42082       -2.76009
H          2.46291       -1.02368       -4.14239
H          0.10907       -0.40687       -3.88580
N         -1.40941       -0.78490       -1.79072
P         -1.87265        0.20926       -0.40417
C         -2.82333       -0.74594        0.77788
C         -3.52584       -1.83210        0.31539
C         -4.31621       -2.56078        1.18582
C         -4.41462       -2.19423        2.52118
C         -3.70781       -1.08384        2.96439
C         -2.92197       -0.35366        2.09131
H         -2.38303        0.51578        2.42940
H         -3.77367       -0.79676        3.99992
C         -5.22501       -3.00496        3.47121
H         -4.85688       -3.42234        0.83351
H         -3.44427       -2.10733       -0.72408
C         -2.99526        1.52927       -0.87866
C         -2.91584        2.74192       -0.23504
C         -3.78226        3.76110       -0.58583
C         -4.74059        3.56574       -1.57139
C         -4.80633        2.33155       -2.20441
C         -3.93853        1.31310       -1.85364
H         -3.99407        0.35077       -2.33654
H         -5.53933        2.17409       -2.97705
C         -5.65236        4.67282       -1.97199
H         -3.71574        4.71813       -0.09718
H         -2.17360        2.88923        0.53395
H         -1.78433       -0.30323       -2.59788
H          0.73298       -0.15099        2.78546
C          1.32819        2.29720        1.72656
C          2.38379        3.17713        1.70101
C          2.28805        4.38240        2.37205
C          1.13008        4.71870        3.06101
C          0.07568        3.81539        3.07639
C          0.17481        2.60967        2.40607
H         -0.64420        1.90934        2.40461
H         -0.82358        4.06244        3.61440
C          1.03513        6.00802        3.80014
H          3.11338        5.07361        2.36003
H          3.27380        2.92245        1.14891
C          3.12788        0.30939        0.72775
C          3.90515        0.63127       -0.35877
C          5.25577        0.34073       -0.35513
C          5.84328       -0.26821        0.74573
C          5.04629       -0.58128        1.83779
C          3.69457       -0.28482        1.83082
H          3.07601       -0.51594        2.68330
H          5.49174       -1.05654        2.69498
C          7.29475       -0.60165        0.75518
H          5.86343        0.59171       -1.20765
H          3.45650        1.13666       -1.19597
Cl         1.90485        2.56036       -1.68177
H         -1.47544       -6.23142        1.70933
H         -0.56243       -6.27732       -0.83952
H         -2.92393       -6.84178       -0.16155
H          0.06217       -4.09712       -1.63791
H          3.36559       -4.68142       -1.16890
H          3.01695       -2.38726        0.82968
H          4.07286       -2.95654       -3.36403
H          5.60211       -3.64881       -1.68154
H         -5.64882       -2.38079        4.25913
H         -6.05189       -3.50066        2.96072
H         -4.61194       -3.77381        3.94357
H         -6.60883        4.28663       -2.32706
H         -5.85578        5.33898       -1.13240
H         -5.21041        5.26641       -2.77336
H          1.40135        5.89689        4.82165
H          1.62591        6.78513        3.31316
H          0.00342        6.35916        3.84856
H          7.44564       -1.68124        0.71145
H          7.81071       -0.15699       -0.09686
H          7.77310       -0.23154        1.66308
