87
-129.18854796
P         -1.58398       -0.31146       -0.27949
P          1.62363        0.35942       -0.02938
C         -1.29343        0.97766       -1.50266
C          1.45759       -0.68163       -1.49355
C         -0.27873        0.84993       -2.44504
C         -0.04444        1.91343       -3.33913
C         -0.84357        3.04221       -3.27221
C         -1.85328        3.14427       -2.33961
C         -2.07171        2.10865       -1.45296
C          2.22413       -1.82072       -1.55143
C          2.09803       -2.69585       -2.61182
C          1.18870       -2.42812       -3.61172
C          0.40184       -1.28979       -3.57418
C          0.54562       -0.38647       -2.50268
Cl         1.24708        0.43933        3.19804
Cl        -1.49604       -1.29808        2.81867
H         -2.46311        4.03173       -2.29560
H         -2.85483        2.18466       -0.71734
H          2.92685       -2.03029       -0.76264
H          2.69978       -3.58907       -2.65083
H         -0.66124        3.85180       -3.95841
H          1.07598       -3.11375       -4.43440
C         -1.72121       -4.44074       -2.16575
C         -0.88463       -4.21712       -1.08078
C         -0.87802       -2.95582       -0.49829
C         -1.66210       -1.94733       -1.00853
C         -2.48315       -2.17389       -2.08800
C         -2.51678       -3.42901       -2.66698
H         -1.74320       -5.41782       -2.61746
C         -0.03206       -5.30529       -0.53030
H         -0.24745       -2.76345        0.35319
H         -3.08245       -1.36629       -2.47838
H         -3.15826       -3.61468       -3.51279
C         -5.36061        0.63180        2.08925
C         -5.33676       -0.45988        1.24389
C         -4.19521       -0.74635        0.51943
C         -3.08785        0.05907        0.64491
C         -3.10831        1.14507        1.48993
C         -4.24960        1.45335        2.21983
H         -6.24535        0.85121        2.66230
H         -6.20482       -1.09212        1.15329
H         -4.15930       -1.60149       -0.13514
H         -2.22793        1.75733        1.59460
C         -4.25410        2.60916        3.15712
C          5.35180       -0.83109        2.30369
C          5.31054        0.38419        1.64935
C          4.18188        0.74693        0.93895
C          3.10433       -0.10600        0.88766
C          3.14258       -1.31622        1.54171
C          4.27142       -1.70096        2.25472
H          6.22591       -1.11154        2.86636
H          6.15474        1.05241        1.69708
H          4.13274        1.69677        0.43265
H          2.28253       -1.96512        1.51499
C          4.29223       -2.99437        2.99025
C          1.54557        4.80058       -0.98573
C          2.42532        3.96985       -1.65186
C          2.45693        2.61936       -1.35705
C          1.61482        2.11588       -0.39369
C          0.74878        2.94328        0.28323
C          0.68925        4.29868       -0.01528
H          1.51630        5.85160       -1.21742
H          3.08151        4.37145       -2.40650
H          3.12322        1.95248       -1.88143
H          0.10737        2.53658        1.04620
C         -0.25525        5.18856        0.71291
Pd        -0.06232       -0.19627        1.49102
C          1.04730        1.85488       -4.35057
C         -0.58283       -1.05291       -4.66642
H          0.64302        1.69176       -5.35031
H          1.61255        2.78778       -4.36600
H          1.75025        1.04962       -4.13469
H         -0.08183       -0.72227       -5.57700
H         -1.13158       -1.96660       -4.89901
H         -1.31450       -0.29374       -4.38813
H          0.89726       -4.90529       -0.12161
H         -0.55037       -5.83659        0.26906
H          0.23107       -6.02932       -1.30275
H         -3.64387        3.42784        2.77262
H         -5.26454        2.99123        3.30902
H         -3.85307        2.31862        4.12910
H          3.73799       -3.76222        2.44839
H          5.31248       -3.35556        3.12694
H          3.83793       -2.88438        3.97591
H         -0.52329        6.05745        0.11022
H         -1.17760        4.66063        0.96043
H          0.18830        5.54586        1.64321
