111
-148.55543781
P         -1.62591       -2.81702       -0.15843
P         -0.51545        0.12935       -0.50012
C         -1.49791       -2.08265       -1.81409
C         -1.08235       -0.77511       -1.95437
C         -0.41599       -4.20297        0.02502
C          0.61911       -3.86898        1.07822
C         -1.78321       -2.83597       -2.93496
H         -2.06874       -3.86904       -2.82281
C         -1.67695       -2.26842       -4.19302
H         -1.90350       -2.85569       -5.06791
C         -1.27489       -0.95354       -4.32919
H         -1.18663       -0.51357       -5.30889
C         -0.96653       -0.20749       -3.20602
H         -0.61824        0.80912       -3.29636
Pd        -1.45539       -1.01652        1.27444
Cl        -2.65630       -2.08513        2.83411
Cl        -1.12756        0.82554        2.52700
C         -1.30517       -5.41398        0.37396
C         -3.21117       -3.73317        0.11603
H          1.32760       -4.68910        1.21659
H          1.18564       -2.97445        0.81147
H          0.14092       -3.67596        2.04078
H         -1.26850       -5.57465        1.46013
H         -0.89366       -6.33207       -0.07180
H         -3.48305       -3.55190        1.16402
C         -2.78305       -5.20077       -0.06262
C         -4.32310       -3.26872       -0.80016
H          0.04934       -4.33291       -0.96083
H         -2.90172       -5.48077       -1.11827
H         -3.45848       -5.86672        0.49607
H         -4.51425       -2.20005       -0.67867
H         -4.06901       -3.43808       -1.84676
H         -5.25379       -3.80417       -0.59928
C         -0.72239        4.66586       -0.79955
C          0.31975        3.95648       -1.45417
C          0.35225        2.57729       -1.32758
C         -0.64066        1.90411       -0.66471
C         -1.71754        2.57283       -0.14544
C         -1.80874        3.95281       -0.22615
O         -0.63582        6.07354       -0.64694
C          1.41284        4.62390       -2.30590
H          1.17209        2.00975       -1.73596
H         -2.48127        2.00232        0.35565
C         -3.07968        4.62130        0.32424
C          3.70946       -1.25871        0.47542
C          3.03785       -0.36672        1.35015
C          1.75487        0.03272        1.01876
C          1.17508       -0.35510       -0.15909
C          1.85553       -1.13731       -1.05426
C          3.14071       -1.57619       -0.78486
O          4.92906       -1.86546        0.87784
C          3.65022        0.12930        2.66843
H          1.16327        0.61848        1.70066
H          1.35804       -1.42083       -1.96475
C          3.87478       -2.42106       -1.83729
C          1.07185        6.08132       -2.66193
C          2.75046        4.57848       -1.54840
C          1.56072        3.85748       -3.63917
C         -4.32348        3.85797       -0.18220
C         -3.05281        4.57453        1.86123
C         -3.22683        6.07913       -0.14522
C          0.06516        6.45641        0.52484
H          1.80915        6.50161       -3.34553
H          0.09347        6.14189       -3.13730
H          1.05077        6.70970       -1.77481
H          2.68948        5.12394       -0.60865
H          3.03360        3.55175       -1.31824
H          3.54937        5.02164       -2.14234
H          2.27772        4.35194       -4.29407
H          1.91224        2.83876       -3.48439
H          0.60595        3.80873       -4.16208
H         -4.36095        2.84148        0.20568
H         -5.23978        4.35772        0.13102
H         -4.32493        3.80461       -1.27052
H         -3.95582        5.01713        2.28069
H         -2.98479        3.54734        2.21824
H         -2.19741        5.11867        2.25656
H         -4.17874        6.50118        0.17619
H         -2.43633        6.70615        0.26004
H         -3.17710        6.13973       -1.23182
H          0.12915        7.54392        0.56649
H         -0.45668        6.09274        1.40833
H          1.06948        6.03624        0.51437
C          4.76411       -3.09370        1.57618
C          5.18094        0.25001        2.56132
C          3.11176        1.53508        3.02145
C          3.26952       -0.83931        3.79860
C          5.39462       -2.18412       -1.77715
C          3.55913       -3.90678       -1.60657
C          3.41507       -2.03654       -3.26236
H          5.60657        0.66077        3.47652
H          5.64498       -0.71764        2.38869
H          5.45695        0.90441        1.73515
H          3.63787        1.94585        3.88282
H          3.24697        2.22266        2.18691
H          2.05343        1.50995        3.27645
H          3.64514       -1.84089        3.60338
H          3.67760       -0.50634        4.75248
H          2.18638       -0.90598        3.89942
H          5.62277       -1.12560       -1.89741
H          5.80974       -2.50839       -0.82623
H          5.90855       -2.73381       -2.56531
H          4.06523       -4.53217       -2.34151
H          3.87449       -4.22865       -0.61706
H          2.48821       -4.08994       -1.68877
H          2.38121       -2.32608       -3.44510
H          4.02443       -2.53820       -4.01377
H          3.50438       -0.96223       -3.42175
H          3.70600       -3.33969        1.67066
H          5.27601       -3.89174        1.03874
H          5.20767       -3.01341        2.56845
