72
-98.09985953
Fe         0.01114        2.84637        0.05391
P          1.84158       -0.02028       -0.03727
P         -1.78680       -0.04088        0.02475
C          1.40977        1.59571        0.70311
C          0.41955        1.80357        1.74586
C          0.36960        3.22778        2.02742
C          1.36601        3.88920        1.20289
C          2.02821        2.87641        0.39826
C         -1.40313        1.62403       -0.65440
C         -2.00530        2.88073       -0.23239
C         -1.37275        3.95674       -0.97630
C         -0.40797        3.37046       -1.88768
C         -0.42574        1.93286       -1.68324
C          3.25553       -0.69846        0.95686
C          4.45311        0.03870        0.33664
C          2.78188        0.21676       -1.62835
C          4.26361        0.28167       -1.18516
C         -3.09829       -0.78349       -1.06838
C         -4.30232        0.10331       -0.70743
C         -2.92720        0.22832        1.47726
C         -4.29230        0.50257        0.79888
H         -0.19308        1.02846        2.20794
H         -0.27949        3.71178        2.76105
H          1.59377        4.95754        1.20384
H          2.83121        3.04265       -0.32286
H         -2.77465        2.99972        0.53266
H          0.18764        1.20762       -2.21391
Cl         1.63339       -3.10885       -0.13987
Cl        -1.56736       -3.08431        0.28301
Pd         0.04146       -1.52880        0.02531
H          3.31623       -1.77156        0.74353
C          3.12277       -0.46601        2.45782
H          2.45723        1.17308       -2.05501
C          2.53907       -0.91950       -2.62315
H          5.38669       -0.50980        0.53676
H          4.56722        1.00344        0.85197
H          4.71161        1.24206       -1.48029
H          4.82910       -0.47788       -1.74235
H         -1.60709        5.02019       -0.88835
H          0.22087        3.91201       -2.59816
H          4.07260       -0.72655        2.94511
H          3.33744       -0.91015       -3.37849
H         -3.27676       -1.80545       -0.71417
C         -2.73968       -0.80206       -2.55840
H         -2.56135        1.11108        2.01497
C         -3.00534       -0.96490        2.42755
H         -5.24516       -0.39585       -0.98035
H         -4.25954        1.00764       -1.33229
H         -4.58045        1.55730        0.91770
H         -5.06958       -0.06293        1.33185
H         -3.65195       -0.64252       -3.14995
H         -3.29379       -1.85299        1.85041
C          1.98581       -1.24922        3.08544
H          1.92189       -1.09351        4.16477
H          1.03306       -0.94841        2.65446
H          2.09666       -2.32087        2.90961
C          1.19189       -0.86485       -3.32074
H          1.09358        0.03852       -3.92576
H          1.04056       -1.71897       -3.98481
H          0.37656       -0.86473       -2.59940
C         -2.07585       -2.10149       -2.99295
H         -2.75841       -2.94637       -2.88316
H         -1.75598       -2.07211       -4.03689
H         -1.20193       -2.32958       -2.38287
C         -1.72751       -1.23676        3.19901
H         -1.84891       -2.04993        3.91839
H         -0.92355       -1.52631        2.52540
H         -1.39932       -0.35494        3.75217
H          2.99056        0.60854        2.63987
H          2.65722       -1.87379       -2.09337
H         -2.09997        0.06067       -2.78317
H         -3.83125       -0.80042        3.13369
