115
-277.94226504
P         -1.84371       -0.50916       -0.03813
P          1.80124        0.59045       -0.06952
C         -1.89218       -2.28686        0.23442
C         -0.74668       -2.98625        0.54823
H          0.14883       -2.46228        0.83796
C         -0.73585       -4.36091        0.42815
H          0.17525       -4.92330        0.56331
C         -1.86782       -5.03157       -0.00497
C         -3.04633       -4.32696       -0.19309
H         -3.91713       -4.85114       -0.55228
C         -3.06087       -2.95311       -0.06658
H         -3.95150       -2.39384       -0.30843
C         -3.38434        0.21364        0.57391
C         -3.82872        1.38980        0.01508
H         -3.26745        1.85221       -0.77944
C         -4.99632        1.96938        0.46438
H         -5.35608        2.89318        0.03900
C         -5.72593        1.37605        1.47638
C         -5.27117        0.19944        2.03756
H         -5.84050       -0.24351        2.83952
C         -4.10515       -0.38313        1.58314
H         -3.74275       -1.29374        2.03283
C         -1.60384       -0.03763       -1.78576
C         -1.11434        1.25187       -1.89714
H         -0.85248        1.79197       -1.00237
C         -0.80102        1.80476       -3.13826
C         -1.20065        1.10847       -4.27305
H         -1.00676        1.53000       -5.24518
C         -1.68327       -0.18086       -4.17066
H         -1.86103       -0.75011       -5.06735
C         -1.77919       -0.82174       -2.93553
C          1.57860        0.06530       -1.80293
C          1.09641       -1.22772       -1.86453
H          0.84019       -1.73332       -0.94952
C          0.78541       -1.82947       -3.08295
C          1.18515       -1.17932       -4.24449
H          0.99306       -1.63972       -5.19917
C          1.67007        0.11225       -4.19185
H          1.85162        0.64534       -5.10976
C          1.76316        0.80106       -2.98260
C         -1.71541       -2.33502       -2.93827
H         -2.38432       -2.72256       -3.71490
H         -2.13762       -2.71366       -2.01152
C         -0.26314       -2.90715       -3.13850
H         -0.03211       -3.67272       -2.38982
H         -0.18725       -3.43134       -4.09770
C          0.25078        2.87703       -3.24625
H          0.03725        3.67481       -2.52701
H          0.16513        3.36399       -4.22416
C          1.70412        2.31182       -3.04431
H          2.36417        2.67065       -3.84243
H          2.14328        2.72936       -2.14190
C          2.20439        2.33921        0.02952
C          1.20185        3.26808        0.20571
C          3.48132        2.73705       -0.30839
C          1.44668        4.59313       -0.08533
C          3.72213        4.06454       -0.60855
C          2.68698        4.98561       -0.56506
C          3.20822       -0.30918        0.62184
C          4.00536       -1.03117       -0.23668
C          3.51300       -0.25993        1.96167
C          5.10249       -1.71097        0.24891
H          3.77020       -1.06242       -1.28809
C          4.60817       -0.94009        2.45015
H          2.89266        0.31587        2.62932
C          5.41128       -1.66744        1.59492
H          5.73173       -2.28935       -0.40902
H          4.85521       -0.92091        3.50001
Pd        -0.08217        0.29439        1.30659
Cl        -1.60957       -0.19796        2.88500
Cl         1.22000        1.40960        2.76684
H          4.67794        4.38036       -0.99696
H          4.25633        1.99800       -0.43875
H          0.64641        5.31513       -0.06093
H          0.21491        2.95487        0.50357
C         -3.01872       -7.23100       -0.51826
C         -1.69884       -6.40956       -0.59302
C         -1.20904       -6.18755       -2.05901
F         -3.93205       -6.69160       -1.33736
F         -2.76581       -8.50157       -0.86903
F         -3.45937       -7.17958        0.74746
F         -0.75310       -7.08270        0.06667
F         -2.03022       -5.32028       -2.66791
F          0.01444       -5.64751       -1.99280
F         -1.17382       -7.35662       -2.71262
C         -6.59764        3.28315        2.82349
C         -6.98402        2.02215        1.99850
C         -7.93966        2.35707        0.81540
F         -7.71094        3.88115        3.27388
F         -5.84206        2.87352        3.85377
F         -5.89138        4.11920        2.04847
F         -7.62791        1.18253        2.81395
F         -7.38698        3.30673        0.04787
F         -8.10506        1.23460        0.09965
F         -9.11865        2.77255        1.30319
C          6.20603       -3.95812        2.15364
C          6.57832       -2.44783        2.14325
C          7.85815       -2.15547        1.30554
F          5.89931       -4.34608        0.90715
F          7.23775       -4.66975        2.63197
F          5.13440       -4.10118        2.94810
F          6.82603       -2.07990        3.40335
F          8.91717       -2.72121        1.90472
F          7.70404       -2.64113        0.06589
F          8.01200       -0.82378        1.25482
C          2.18436        5.91546       -2.77479
C          2.80663        6.24844       -1.38102
C          2.11002        7.44990       -0.67957
F          0.90607        5.55198       -2.60952
F          2.27964        6.98187       -3.58002
F          2.86689        4.87956       -3.28281
F          4.09096        6.56358       -1.56485
F          0.79243        7.22132       -0.59003
F          2.63568        7.56284        0.54950
F          2.34488        8.56606       -1.38689
