72
-108.40101993
Cl         1.76853       -0.80053        2.61917
Cl        -1.04314        0.76947        2.71541
P         -1.18033        1.12244       -0.28531
P          2.30063       -0.11572       -0.32891
C          3.27570        1.49328       -0.07396
C          3.62116        1.63410        1.40942
C          4.54622        1.46746       -0.91589
C          3.38622       -1.66331       -0.10074
C          4.20381       -1.92935       -1.37104
C          1.48651       -0.38265       -2.01279
C          1.53043        0.80665       -2.94903
C         -1.11443       -0.22473       -1.50897
C          0.07777       -0.94988       -1.95168
C         -0.38864       -2.06649       -2.77679
C         -1.83413       -2.00109       -2.87828
C         -2.27923       -0.86781       -2.08970
C          2.41092        2.68478       -0.46928
H          4.12113        2.58556        1.59809
H          2.72490        1.60633        2.02931
H          5.06954        2.42273       -0.84955
H          4.32561        1.28423       -1.96666
C          4.33968       -1.53837        1.08378
H          3.58938       -2.32375       -2.17951
H          4.97544       -2.67649       -1.17791
H          2.10652       -1.16761       -2.45597
H          1.16670        0.53533       -3.94222
H          2.53743        1.20524       -3.06804
H          0.87788        1.59861       -2.58891
H          0.25669       -2.75479       -3.32628
H         -2.47230       -2.67522       -3.45432
Pd         0.49696        0.30139        1.13864
H         -3.31233       -0.55375       -1.92407
C          2.42308       -2.81766        0.13623
H          4.69996       -1.02936       -1.72968
H          5.12078       -0.80439        0.89456
H          3.81211       -1.26530        1.99537
H          4.83847       -2.49005        1.27269
H          1.92015       -2.70641        1.09567
H          1.66757       -2.86501       -0.64932
H          2.95331       -3.77195        0.15200
H          4.28955        0.84956        1.75390
H          5.23702        0.69826       -0.57479
H          2.21119        2.71276       -1.53726
H          1.46173        2.66428        0.06304
H          2.90773        3.62285       -0.21608
C         -2.87540        1.18588        0.35101
C         -3.36410        2.16908        1.17486
C         -4.69475        1.85168        1.44754
C         -4.96523        0.68582        0.77472
O         -3.85722        0.26653        0.09690
H         -2.81335        3.01466        1.55254
H         -5.37572        2.41043        2.06857
H         -5.91276        0.16133        0.77276
C         -0.78654        2.73928       -0.97640
C         -0.69508        3.87760       -0.21407
C         -0.37729        4.92465       -1.08037
C         -0.28874        4.37971       -2.33793
O         -0.53448        3.03709       -2.28784
H         -0.82573        3.93813        0.85453
H         -0.23060        5.95863       -0.81406
H         -0.05650        4.92091       -3.24675
Fe        -1.26065       -2.13298       -0.93512
C         -2.13128       -1.98715        0.93865
C         -0.83306       -2.61931        1.02684
C         -0.85110       -3.80534        0.19218
C         -2.17124       -3.90710       -0.40340
C         -2.96946       -2.79287        0.07462
H         -2.42837       -1.07395        1.45713
H         -0.01165       -2.27000        1.65446
H         -0.03522       -4.52111        0.06950
H         -2.51621       -4.70484       -1.06500
H         -4.01121       -2.58572       -0.17852
