64
-97.22284507
Cl        -1.33576       -0.40558       -2.81566
Cl         1.90422       -0.66467       -2.92115
P          1.93835       -0.67932        0.35136
C          2.01404       -2.43134        0.95873
C          3.76393       -0.37753        0.16511
P         -1.25685       -0.30217        0.37300
C          1.19159        0.47710        1.55565
C         -0.25043        0.62721        1.59361
C         -0.56677        1.63793        2.59201
C          0.69307        2.13332        3.12251
C          1.78355        1.37220        2.53611
H         -1.56532        1.96176        2.89120
H          0.79781        2.89248        3.90133
Pd         0.32523       -0.68775       -1.33862
H          2.84934        1.49303        2.73774
C         -5.16441        1.71095       -0.85399
C         -4.87741        0.42123       -1.25401
C         -3.68715       -0.17027       -0.86973
C         -2.78792        0.52732       -0.09567
C         -3.07892        1.80932        0.31147
C         -4.26618        2.40611       -0.06931
H         -6.08998        2.17482       -1.15385
H         -5.57634       -0.12376       -1.86701
H         -3.44900       -1.17595       -1.17852
H         -2.37534        2.34295        0.92463
H         -4.48896        3.41234        0.24591
C         -2.40687       -4.39652        1.96861
C         -2.02509       -4.25864        0.64824
C         -1.67917       -3.01260        0.15801
C         -1.71190       -1.91931        0.99257
C         -2.10225       -2.04718        2.30555
C         -2.44919       -3.29276        2.79820
H         -2.67628       -5.36735        2.35154
H         -1.99844       -5.11890       -0.00026
H         -1.39346       -2.88512       -0.87382
H         -2.12648       -1.17389        2.93843
H         -2.75067       -3.40029        3.82719
C          4.16058        0.54020       -0.97022
H          4.08481        0.04645        1.12594
C          4.31661       -1.80536        0.01893
H          5.38507       -1.83210        0.28251
C          3.50526       -2.81381        0.87223
H          4.26607       -2.09376       -1.04039
C          1.45454       -2.52731        2.36162
H          1.41644       -3.02292        0.25249
H          3.92093       -2.84406        1.88834
H          3.61761       -3.83610        0.48201
H          0.42039       -2.18373        2.40322
H          1.48578       -3.55300        2.73652
H          2.02952       -1.90256        3.04814
H          5.24661        0.60742       -1.06107
H          3.77765        0.17166       -1.92120
H          3.78070        1.55062       -0.82447
Fe         0.64865        2.35559        1.10510
C          1.98246        3.42204       -0.02588
C          1.01202        4.31831        0.57830
C         -0.30923        3.87209        0.17090
C         -0.15197        2.73268       -0.71634
C          1.26533        2.45696       -0.84006
H          3.06711        3.50637        0.07111
H          1.23470        5.16886        1.22640
H         -1.25277        4.35931        0.42837
H         -0.94690        2.19618       -1.23900
H          1.69691        1.68834       -1.48471
