75
-122.81753747
P          1.81879       -0.62028        0.10525
C          3.10522       -1.51075       -0.78553
C          4.39286       -1.46937       -0.30088
C          5.39493       -2.16988       -0.94781
C          5.09712       -2.91664       -2.07020
C          3.80061       -2.97041       -2.54166
C          2.80116       -2.26948       -1.89230
H          1.78451       -2.30881       -2.24862
H          3.56654       -3.55664       -3.41509
H          5.87686       -3.46192       -2.57650
H          6.40481       -2.13510       -0.57340
H          4.60595       -0.90142        0.59125
C          1.69364       -1.40079        1.72284
C          1.48489       -0.65196        2.85820
C          1.47904       -1.26359        4.09775
C          1.67760       -2.62655        4.19234
C          1.87775       -3.37755        3.05113
C          1.88783       -2.76050        1.81304
H          2.06041       -3.33170        0.91458
H          2.02890       -4.44198        3.12374
H          1.66838       -3.10599        5.15754
H          1.31157       -0.67783        4.98659
H          1.31181        0.40704        2.76857
C          2.23676        1.12265        0.28919
C          3.40597        1.69404       -0.15579
C          3.60416        3.06419       -0.05828
C          2.59494        3.84982        0.49745
C          1.41152        3.29303        0.92892
C          1.22662        1.90501        0.82861
O          0.02426        1.29856        1.22773
C         -1.15237        1.96683        0.85297
C         -1.26936        3.36071        0.97333
C         -2.43888        3.97739        0.58732
C         -3.49884        3.24810        0.04993
C         -3.36209        1.87328       -0.08338
C         -2.20617        1.24369        0.31507
P         -1.87045       -0.50345        0.03937
C         -1.71448       -1.37745        1.59979
C         -1.54534       -2.74267        1.57660
C         -1.50818       -3.44916        2.76542
C         -1.64628       -2.78212        3.96670
C         -1.81578       -1.41171        3.98369
C         -1.85087       -0.70792        2.79407
H         -1.98150        0.36186        2.78979
H         -1.91768       -0.89040        4.92122
H         -1.61493       -3.33151        4.89337
H         -1.37198       -4.51800        2.75265
H         -1.45524       -3.24973        0.62859
C         -3.23006       -1.28028       -0.84860
C         -4.47081       -1.29265       -0.25260
C         -5.53685       -1.89750       -0.89399
C         -5.34966       -2.49296       -2.12548
C         -4.10052       -2.48880       -2.71369
C         -3.03707       -1.88348       -2.06997
H         -2.05823       -1.87293       -2.52087
H         -3.95368       -2.95435       -3.67442
H         -6.17925       -2.96361       -2.62742
H         -6.51005       -1.90541       -0.43132
H         -4.59723       -0.83637        0.71694
Pd         0.01165       -0.20685       -1.37433
Cl        -1.55630        0.73858       -2.70140
Cl         1.62103        0.39695       -2.83194
H         -4.15478        1.29753       -0.52743
C         -4.75717        3.92686       -0.35993
H         -4.56427        4.95014       -0.68466
H         -5.46529        3.96344        0.46886
H         -5.23431        3.40164       -1.18841
H         -2.52565        5.04458        0.69084
S          0.10567        4.28592        1.60559
H          2.73342        4.91315        0.58221
C          4.87864        3.67597       -0.52037
H          4.16178        1.07752       -0.60853
H          4.74297        4.72868       -0.77145
H          5.64333        3.60995        0.25458
H          5.25528        3.16963       -1.41012
