87
-129.18886582
P         -1.61194       -0.32475       -0.28382
P          1.64993        0.37292       -0.02830
C         -1.30645        0.97036       -1.49547
C          1.47021       -0.67498       -1.48426
C         -0.28095        0.84816       -2.42715
C         -0.04064        1.91505       -3.31533
C         -0.84131        3.04289       -3.25096
C         -1.85949        3.14045       -2.32711
C         -2.08588        2.10057       -1.44738
C          2.23805       -1.81311       -1.54271
C          2.10324       -2.69378       -2.59753
C          1.18476       -2.43178       -3.59070
C          0.39600       -1.29477       -3.55135
C          0.54637       -0.38694       -2.48479
Cl         1.19447        0.49427        3.18454
Cl        -1.43865       -1.32717        2.81129
H         -2.47100        4.02688       -2.28580
H         -2.87625        2.17188       -0.71889
H          2.94741       -2.01732       -0.75817
H          2.70604       -3.58622       -2.63790
H         -0.65428        3.85490       -3.93303
H          1.06671       -3.12077       -4.40981
C         -1.73630       -4.44854       -2.18089
C         -0.89460       -4.22244       -1.10041
C         -0.89256       -2.96261       -0.51464
C         -1.68592       -1.95782       -1.01773
C         -2.51236       -2.18675       -2.09252
C         -2.54147       -3.44062       -2.67451
H         -1.75476       -5.42455       -2.63505
C         -0.03201       -5.30669       -0.55785
H         -0.25928       -2.76850        0.33448
H         -3.11956       -1.38210       -2.47674
H         -3.18690       -3.62824       -3.51688
C         -5.36427        0.60849        2.12433
C         -5.34729       -0.48200        1.27721
C         -4.21282       -0.76542        0.54046
C         -3.10581        0.04201        0.65569
C         -3.11918        1.12677        1.50241
C         -4.25340        1.43187        2.24462
H         -6.24347        0.82561        2.70671
H         -6.21517       -1.11557        1.19466
H         -4.18202       -1.61933       -0.11607
H         -2.23891        1.74075        1.59843
C         -4.25027        2.58665        3.18317
C          5.35075       -0.84096        2.33325
C          5.32884        0.36692        1.66437
C          4.20584        0.73937        0.94995
C          3.11677       -0.09910        0.90510
C          3.13563       -1.30201        1.57320
C          4.25176       -1.68822        2.30516
H          6.22510       -1.13412        2.88900
H          6.18524        1.02017        1.70059
H          4.17222        1.68288        0.43055
H          2.27144       -1.94504        1.54011
C          4.27033       -2.99608        3.01498
C          1.57004        4.80916       -1.00186
C          2.45163        3.97727       -1.66418
C          2.48867        2.62881       -1.36076
C          1.64565        2.12772       -0.39700
C          0.77804        2.95629        0.27637
C          0.72638        4.31315       -0.01745
H          1.52809        5.85640       -1.24836
H          3.10283        4.37595       -2.42467
H          3.15603        1.96082       -1.88234
H          0.12930        2.54889        1.03282
C         -0.25263        5.19662        0.67183
Pd        -0.06272       -0.18620        1.45229
C          1.05564        1.85779       -4.32189
C         -0.59496       -1.06099       -4.63850
H          1.61354        2.79500       -4.34239
H          1.76390        1.05964       -4.09709
H          0.65666        1.68368       -5.32189
H         -0.10036       -0.72177       -5.54942
H         -1.13732       -1.97792       -4.87328
H         -1.33150       -0.30899       -4.35358
H          0.23607       -6.02364       -1.33517
H          0.89451       -4.90137       -0.14805
H         -0.54462       -5.84729        0.23895
H         -3.64941        3.40868        2.79111
H         -5.26023        2.96382        3.34978
H         -3.83422        2.29709        4.14912
H          4.55840       -3.80101        2.33732
H          4.97715       -2.98481        3.84582
H          3.28600       -3.23328        3.42149
H          0.12186        6.21862        0.74520
H         -1.19901        5.22123        0.12955
H         -0.45484        4.84350        1.68420
