105
-153.07192753
Cl        -0.75591        2.09843       -2.85708
Pd         0.09380        1.50345       -0.86039
P          1.36286        0.72104        0.92126
N          0.70893       -0.56475        1.92280
C          0.05015       -1.76189        1.67953
C         -0.12987       -2.32258        0.39014
C         -0.90053       -3.49662        0.24868
C         -1.08009       -4.08577       -1.13038
C         -2.19366       -5.14020       -1.22936
C         -2.12294       -6.12430       -0.05847
C         -2.26362       -5.38670        1.28153
C         -1.44167       -4.12523        1.37274
C         -1.21496       -3.57991        2.62904
C         -0.48812       -2.42826        2.77981
H         -0.34596       -2.00657        3.75968
H         -1.63577       -4.06675        3.49257
H         -3.31552       -5.13013        1.45363
H         -2.89008       -6.90527       -0.15856
H         -3.16999       -4.63955       -1.22258
H         -1.28082       -3.27168       -1.83694
C          0.66282       -1.85958       -0.77583
C          0.02576       -1.23539       -1.88261
C          0.77172       -1.01931       -3.04472
C          2.08174       -1.41346       -3.12846
C          2.70653       -2.06206       -2.07077
C          4.11423       -2.56353       -2.25657
C          4.42048       -3.78528       -1.37977
C          4.07218       -3.48904        0.08182
C          2.59465       -3.08867        0.24849
C          1.99983       -2.28605       -0.88814
H          1.98778       -3.99290        0.37738
H          4.71419       -2.67736        0.44179
H          5.47212       -4.08932       -1.48066
H          4.81353       -1.75362       -2.02242
H          2.63775       -1.23664       -4.03351
H          0.30316       -0.52133       -3.87530
N         -1.31338       -0.82467       -1.85113
P         -1.86013        0.20138       -0.52270
C         -2.79873       -0.70933        0.69905
C         -3.59732       -1.73826        0.26175
C         -4.37996       -2.43264        1.16673
C         -4.36665       -2.09388        2.51348
C         -3.57022       -1.03529        2.92937
C         -2.79139       -0.33957        2.02264
H         -2.17026        0.47943        2.34434
H         -3.55967       -0.76356        3.97111
C         -5.18851       -2.84565        3.50158
H         -5.00215       -3.24415        0.83039
H         -3.59809       -1.99582       -0.78575
C         -2.97984        1.47611       -1.11237
C         -2.98036        2.71378       -0.51348
C         -3.84548        3.69355       -0.96507
C         -4.71461        3.43854       -2.01730
C         -4.71274        2.17535       -2.59362
C         -3.84575        1.19667       -2.14188
H         -3.84546        0.21420       -2.58600
H         -5.39396        1.96302       -3.39982
C         -5.66006        4.48705       -2.49072
H         -3.84850        4.66571       -0.50248
H         -2.30155        2.91217        0.30072
H         -1.63110       -0.35064       -2.68683
H          0.93546       -0.33927        2.88390
C          1.32347        2.19311        1.95092
C          0.09761        2.66113        2.35989
C          0.01992        3.80511        3.13340
C          1.17235        4.48378        3.50608
C          2.40041        4.00102        3.07380
C          2.47488        2.85763        2.30000
H          3.42704        2.48811        1.95680
H          3.29851        4.53085        3.34182
C          1.09003        5.73249        4.31315
H         -0.93892        4.18056        3.44775
H         -0.79442        2.13517        2.06153
C          3.08090        0.40411        0.52265
C          3.61512        0.78934       -0.68374
C          4.95842        0.58603       -0.93839
C          5.78005        0.01039        0.02124
C          5.22549       -0.36105        1.23842
C          3.87899       -0.16290        1.48780
H          3.44559       -0.44333        2.43487
H          5.85340       -0.81142        1.98816
C          7.21888       -0.24466       -0.26420
H          5.37786        0.87881       -1.88575
H          2.98457        1.26646       -1.41545
Cl         1.60213        3.17560       -0.93197
H         -1.98614       -6.05057        2.11036
H         -2.14322       -5.67300       -2.18945
H         -1.16071       -6.65114       -0.08531
H         -0.12625       -4.52239       -1.44920
H          4.31367       -4.35159        0.71867
H          2.46417       -2.52057        1.17739
H          4.28014       -2.79951       -3.31545
H          3.82869       -4.64095       -1.72866
H         -5.69368       -3.69342        3.03677
H         -4.56575       -3.23250        4.30953
H         -5.95127       -2.20202        3.94198
H         -6.60114        4.43704       -1.94136
H         -5.24181        5.48506       -2.35263
H         -5.88231        4.36629       -3.55187
H          0.21619        5.72285        4.96613
H          1.97239        5.85295        4.94325
H          1.01675        6.60721        3.66556
H          7.82251       -0.14432        0.63890
H          7.36294       -1.25284       -0.65537
H          7.60600        0.46059       -1.00091
