72
-108.40349343
Cl         1.70387       -0.88369        2.71119
Cl        -0.88008        0.96911        2.78401
P         -1.11495        1.13386       -0.26603
P          2.24163       -0.12521       -0.38705
C          3.24234        1.46770       -0.13506
C          3.59754        1.61240        1.34652
C          4.50892        1.42706       -0.98233
C          3.31360       -1.67841       -0.14048
C          4.14009       -1.96297       -1.40113
C          1.43877       -0.40678       -2.07040
C          1.50758        0.76582       -3.02649
C         -1.13700       -0.18767       -1.51481
C          0.01922       -0.94136       -1.99848
C         -0.49561       -2.00877       -2.85863
C         -1.93991       -1.89788       -2.91364
C         -2.33331       -0.76852       -2.09426
C          2.38755        2.66456       -0.52727
H          2.70644        1.58598        1.97364
H          4.27127        0.83200        1.68930
H          5.19520        0.65486       -0.63869
H          5.04004        2.37851       -0.92351
C          4.25686       -1.55167        1.05164
H          4.64661       -1.07079       -1.76437
H          3.52998       -2.36014       -2.21147
H          2.04311       -1.21259       -2.49717
H          0.85639        1.56948       -2.69038
H          1.15648        0.48048       -4.02033
H          2.51938        1.15427       -3.13683
H          0.11520       -2.69993       -3.44247
H         -2.61161       -2.53259       -3.49534
Pd         0.51325        0.22983        1.17701
H         -3.35160       -0.42729       -1.89780
C          2.33925       -2.82212        0.09775
H          4.90396       -2.71430       -1.19395
H          3.72525       -1.25024        1.95176
H          4.73349       -2.50988        1.26352
H          5.05566       -0.83844        0.85652
H          1.82464       -2.69454        1.04886
H          1.59447       -2.87331       -0.69775
H          2.86190       -3.78013        0.13242
H          4.09686        2.56547        1.52846
H          4.28338        1.23951       -2.03111
H          2.90596        3.59945       -0.30747
H          2.15250        2.67373       -1.58834
H          1.45725        2.66630        0.03766
C         -2.79112        1.22195        0.42137
C         -3.24134        2.19498        1.27885
C         -4.57110        1.89773        1.57647
C         -4.88114        0.75389        0.88369
O         -3.79812        0.32906        0.17003
H         -2.66520        3.01879        1.66612
H         -5.22543        2.45500        2.22678
H         -5.83880        0.24822        0.89285
C         -0.73122        2.75242       -0.95869
C         -0.65482        3.89708       -0.20402
C         -0.34268        4.94116       -1.07579
C         -0.24202        4.38841       -2.32896
O         -0.47421        3.04368       -2.27059
H         -0.78784        3.96380        0.86370
H         -0.20649        5.97820       -0.81590
H         -0.01030        4.92562       -3.24028
Fe        -1.28414       -2.12156       -0.95491
C         -2.99691       -2.83519       -0.04108
C         -2.19622       -2.02587        0.85738
C         -0.89538       -2.64593        0.99219
C         -0.86752       -3.81661        0.13579
C         -2.16366       -3.92823       -0.50858
H         -4.03332       -2.64158       -0.32608
H         -2.52905       -1.12635        1.37905
H         -0.10436       -2.30316        1.66161
H         -0.04178       -4.52476        0.03775
H         -2.47308       -4.72199       -1.19223
