111
-148.55967410
P         -2.54868       -1.90300       -1.18593
P          0.18747       -0.47052       -0.44784
C         -1.32325       -1.57482       -2.48115
C         -0.11782       -0.99568       -2.14657
C         -3.45984       -3.48864       -1.46521
C         -2.99059       -4.56689       -0.51297
C         -1.59382       -1.88898       -3.79756
H         -2.54569       -2.32232       -4.05741
C         -0.64898       -1.63019       -4.77566
H         -0.85935       -1.87557       -5.80385
C          0.56114       -1.05581       -4.43666
H          1.29558       -0.85232       -5.19848
C          0.82559       -0.73315       -3.11781
H          1.75845       -0.26929       -2.83809
Pd        -1.41851       -1.58594        0.79079
Cl        -3.19951       -2.31719        1.94438
Cl        -0.22790       -1.22266        2.66243
C         -4.93201       -3.07122       -1.28819
C         -3.95860       -0.70510       -1.17687
H         -1.92316       -4.76649       -0.63407
H         -3.15128       -4.26540        0.52314
H         -3.53164       -5.50274       -0.67128
H         -5.22518       -3.24969       -0.24437
H         -5.58906       -3.71396       -1.89370
H         -4.08982       -0.39842       -0.13038
C         -5.14791       -1.57002       -1.63477
C         -3.67315        0.49287       -2.05620
H         -3.26822       -3.78213       -2.50502
H         -5.26828       -1.45880       -2.72121
H         -6.08482       -1.19607       -1.19451
H         -3.47706        0.18150       -3.08389
H         -4.51696        1.18651       -2.07345
H         -2.79477        1.03871       -1.70621
C         -1.17474        3.84572        0.08126
C         -0.81536        3.37533       -1.20988
C         -0.38568        2.06474       -1.33373
C         -0.36947        1.22056       -0.25495
C         -0.81623        1.63953        0.96954
C         -1.27796        2.92946        1.16171
O         -1.34833        5.23476        0.31069
C         -0.87664        4.23346       -2.48447
H         -0.04870        1.68880       -2.28428
H         -0.79200        0.93863        1.78653
C         -1.90432        3.26773        2.52470
C          4.55163       -0.71548        0.81614
C          4.05722        0.45288        0.18196
C          2.71924        0.48767       -0.17271
C          1.90843       -0.60136        0.01369
C          2.40592       -1.77009        0.52601
C          3.73427       -1.87176        0.90671
O          5.85001       -0.71528        1.39199
C          4.93117        1.68710       -0.09129
H          2.28324        1.37998       -0.58820
H          1.73181       -2.60093        0.64362
C          4.25453       -3.21165        1.45032
C          0.55276        4.59830       -2.91867
C         -1.56033        3.43208       -3.61471
C         -1.69842        5.51901       -2.28712
C         -2.69913        4.58435        2.49235
C         -2.89568        2.14952        2.91986
C         -0.79836        3.35881        3.58876
C         -0.14661        5.87978        0.69842
H          1.14332        3.70213       -3.10708
H          0.54295        5.19215       -3.83225
H          1.06193        5.17511       -2.14875
H         -0.98759        2.54861       -3.89160
H         -2.55446        3.10792       -3.30883
H         -1.66852        4.04180       -4.51135
H         -2.69305        5.28487       -1.90922
H         -1.22005        6.18733       -1.57512
H         -1.80966        6.06227       -3.22523
H         -3.21219        4.75693        3.43814
H         -2.04593        5.43486        2.31221
H         -3.44563        4.56288        1.69914
H         -3.64451        2.00661        2.14128
H         -2.39162        1.19773        3.07897
H         -3.41511        2.39925        3.84451
H         -0.24686        2.42170        3.65811
H         -0.08631        4.14646        3.34981
H         -1.21967        3.57325        4.57051
H          0.60248        5.77646       -0.08511
H         -0.34550        6.93789        0.86977
H          0.23939        5.43298        1.61322
C          5.88228       -0.28586        2.74743
C          4.43045        2.44326       -1.34377
C          4.85886        2.63741        1.11367
C          6.39139        1.28414       -0.36508
C          5.74272       -3.41021        1.10976
C          4.04706       -3.25495        2.97194
C          3.48723       -4.39387        0.81572
H          5.12168        3.24051       -1.61619
H          4.34514        1.76891       -2.19551
H          3.45981        2.90736       -1.17464
H          5.46113        3.52959        0.94414
H          3.83132        2.95276        1.29398
H          5.21990        2.15525        2.01885
H          6.44553        0.57805       -1.19302
H          6.99667        2.15359       -0.62039
H          6.84318        0.81310        0.50421
H          6.36420       -2.65954        1.59137
H          6.09306       -4.38806        1.43921
H          5.90323       -3.33681        0.03467
H          4.59075       -2.45417        3.46711
H          2.99195       -3.14041        3.21948
H          4.39099       -4.20214        3.38654
H          3.93770       -5.34451        1.10028
H          3.50412       -4.32790       -0.27185
H          2.44892       -4.42268        1.14265
H          4.87691       -0.04141        3.09277
H          6.29921       -1.07609        3.37155
H          6.52178        0.59192        2.83852
