87
-129.18436717
P         -1.56449       -0.29030       -0.38416
P          1.65523        0.21686        0.17068
C         -1.13740        0.96215       -1.59871
C          1.51184       -0.83100       -1.29832
C         -0.06741        0.74045       -2.45621
C          0.26309        1.73369       -3.40008
C         -0.49613        2.89103       -3.45491
C         -1.55794        3.08811       -2.59733
C         -1.87578        2.11797       -1.66764
C          2.19337       -2.02392       -1.24141
C          2.07603       -2.95052       -2.25843
C          1.25350       -2.68326       -3.33023
C          0.54807       -1.49515       -3.40801
C          0.68972       -0.53737       -2.38497
Cl         1.01474       -0.08132        3.33285
Cl        -1.68265       -1.75527        2.51512
H         -2.13513        3.99671       -2.64908
H         -2.70741        2.26060       -0.99802
H          2.81818       -2.23732       -0.38990
H          2.61390       -3.88294       -2.20616
H         -0.24121        3.64767       -4.17742
H          1.14342       -3.40865       -4.11849
C         -2.39859       -4.23421       -2.47420
C         -1.53328       -4.21334       -1.38893
C         -1.30229       -3.00192       -0.74879
C         -1.92307       -1.85414       -1.18309
C         -2.78622       -1.88369       -2.25305
C         -3.02749       -3.08098       -2.90111
H         -2.57400       -5.16506       -2.98606
C         -0.82481       -5.44567       -0.94934
H         -0.62592       -2.95887        0.08810
H         -3.25303       -0.96912       -2.58402
H         -3.69792       -3.11124       -3.74431
C         -5.14194        1.12234        2.06157
C         -5.24571       -0.02191        1.29534
C         -4.16543       -0.45245        0.54858
C         -2.99322        0.26579        0.56878
C         -2.88689        1.40362        1.33490
C         -3.95886        1.84744        2.09836
H         -5.98295        1.46006        2.64285
H         -6.16664       -0.58148        1.28193
H         -4.22889       -1.34988       -0.04453
H         -1.96404        1.95763        1.33981
C         -3.83741        3.08776        2.91180
C          5.57655       -0.64172        2.32180
C          4.52415       -1.52691        2.44496
C          3.32743       -1.26934        1.80360
C          3.19161       -0.13117        1.04294
C          4.23935        0.75224        0.91941
C          5.44716        0.51458        1.56525
H          6.51114       -0.84211        2.81752
H          4.63314       -2.41630        3.04375
H          2.49253       -1.94424        1.90737
H          4.11951        1.63816        0.31937
C          6.58672        1.46006        1.41460
C          1.09588        4.68506       -0.44130
C          1.93889        3.98429       -1.28169
C          2.12671        2.62732       -1.09622
C          1.46739        1.98535       -0.07494
C          0.65646        2.68770        0.78690
C          0.45111        4.05044        0.61147
H          0.93395        5.73824       -0.59567
H          2.43899        4.49105       -2.09065
H          2.76671        2.06070       -1.75362
H          0.20457        2.17981        1.62163
C         -0.47411        4.79813        1.50536
Pd        -0.14961       -0.50152        1.46535
C          1.41192        1.57022       -4.33348
C         -0.35393       -1.26635       -4.57137
H          2.02689        2.47111       -4.35418
H          2.05443        0.74071       -4.03614
H          1.06326        1.37962       -5.34922
H         -0.94021       -2.16024       -4.78892
H         -1.05612       -0.45425       -4.38043
H          0.21898       -1.01560       -5.46487
H         -0.62332       -5.42076        0.12259
H         -1.41942       -6.33697       -1.15438
H          0.12909       -5.54888       -1.46855
H         -3.92189        3.97442        2.28186
H         -4.61632        3.14034        3.67366
H         -2.87330        3.12604        3.42110
H          6.23298        2.47848        1.24737
H          7.21099        1.46963        2.30922
H          7.21456        1.17838        0.56812
H         -1.48409        4.80928        1.09294
H         -0.51946        4.34131        2.49503
H         -0.14977        5.83192        1.63207
