115
-277.94175115
P         -1.97207       -0.51903       -0.01834
P          1.72656        0.60815       -0.18949
C         -1.95454       -2.30929        0.17947
C         -0.77680       -2.98109        0.42754
H          0.11149       -2.43940        0.70628
C         -0.72588       -4.34950        0.25930
H          0.20694       -4.88550        0.34377
C         -1.85019       -5.04259       -0.15722
C         -3.05689       -4.37183       -0.27757
H         -3.92359       -4.91274       -0.62161
C         -3.11155       -3.00468       -0.09945
H         -4.03010       -2.46851       -0.28145
C         -3.50309        0.13986        0.68165
C         -4.17544       -0.51323        1.68943
H         -3.77879       -1.43323        2.08815
C         -5.33631        0.02546        2.20694
H         -5.86912       -0.46236        3.00794
C         -5.83347        1.21430        1.71087
C         -5.15192        1.86395        0.69999
H         -5.54534        2.79600        0.32534
C         -3.98942        1.32832        0.18765
H         -3.46431        1.83435       -0.60524
C         -1.80339        0.04980       -1.74664
C         -1.30947        1.34089       -1.81336
H         -1.00565        1.83410       -0.90485
C         -1.05023        1.95688       -3.03737
C         -1.50926        1.32478       -4.18685
H         -1.35777        1.79622       -5.14348
C         -1.99796        0.03518       -4.12935
H         -2.22401       -0.48409       -5.04529
C         -2.04112       -0.66953       -2.92640
C          1.39080        0.14996       -1.92526
C          0.89232       -1.13574       -2.00722
H          0.68790       -1.67486       -1.09864
C          0.50378       -1.68890       -3.22644
C          0.83908       -0.99783       -4.38442
H          0.58551       -1.42007       -5.34234
C          1.33731        0.28768       -4.31195
H          1.46807        0.85433       -5.21832
C          1.50935        0.92902       -3.08522
C         -1.99678       -2.18037       -3.01147
H         -2.67692       -2.51311       -3.80363
H         -2.41924       -2.60379       -2.10407
C         -0.55378       -2.75888       -3.26011
H         -0.30617       -3.53173       -2.52458
H         -0.50905       -3.27819       -4.22399
C          0.00320        3.02797       -3.14049
H         -0.14966        3.76962       -2.34947
H         -0.14680        3.58989       -4.06932
C          1.46167        2.44130       -3.08712
H          2.05219        2.82188       -3.92861
H          1.98613        2.82390       -2.21520
C          2.15766        2.34866       -0.05438
C          1.18242        3.28011        0.22935
C          3.41176        2.74692       -0.46782
C          1.42321        4.61480       -0.02302
C          3.64467        4.08147       -0.73770
C          2.62813        5.01265       -0.57935
C          3.15243       -0.34159        0.38928
C          3.87668       -1.06641       -0.52989
C          3.53769       -0.32974        1.70882
C          4.98035       -1.78958       -0.12479
H          3.57941       -1.06547       -1.56579
C          4.63926       -1.04999        2.11613
H          2.97573        0.24824        2.42471
C          5.36505       -1.78781        1.20095
H          5.55982       -2.36566       -0.82847
H          4.95283       -1.04961        3.14915
Pd        -0.11995        0.25068        1.23156
Cl        -1.60531       -0.28188        2.83895
Cl         1.29420        1.31943        2.62410
H          4.57478        4.39278       -1.18539
H          4.16691        2.00627       -0.68044
H          0.64018        5.34940        0.08580
H          0.21477        2.96377        0.58217
C         -2.94980       -7.25638       -0.71964
C         -1.65612       -6.39445       -0.79604
C         -1.20779       -6.10902       -2.26422
F         -3.89750       -6.71607       -1.49810
F         -2.66932       -8.50620       -1.12034
F         -3.36136       -7.26125        0.55685
F         -0.67586       -7.06116       -0.18176
F         -1.15338       -7.25393       -2.95799
F         -2.06861       -5.24734       -2.82399
F          0.00045       -5.53418       -2.20761
C         -6.70712        3.06817        3.13045
C         -7.08769        1.81067        2.29724
C         -8.10026        2.13643        1.15987
F         -5.88785        2.66614        4.11396
F         -6.07035        3.94576        2.34144
F         -7.81801        3.61488        3.64703
F         -7.67158        0.93631        3.12129
F         -7.60310        3.10823        0.38218
F         -8.26878        1.01885        0.43723
F         -9.26717        2.51724        1.70185
C          7.67679       -1.60503        2.12941
C          6.57170       -2.58114        1.63312
C          6.15212       -3.61147        2.72154
F          8.76517       -2.30621        2.48139
F          7.96698       -0.77749        1.11394
F          7.21178       -0.89961        3.17038
F          7.06871       -3.26447        0.59836
F          7.20079       -4.39328        3.02054
F          5.72348       -2.95937        3.81132
F          5.15379       -4.34959        2.21302
C          4.09445        6.87522       -1.48668
C          2.64887        6.32188       -1.32912
C          1.95871        6.03448       -2.70130
F          4.65210        6.91085       -0.26737
F          4.80317        6.06450       -2.28445
F          4.03725        8.11171       -2.00553
F          1.92237        7.23653       -0.68237
F          0.68505        5.70528       -2.44741
F          2.01679        7.12402       -3.47859
F          2.56617        4.99353       -3.28734
