111
-148.55432085
P         -2.48000       -2.20392       -0.33498
P          0.07677       -0.35135       -0.47398
C         -1.50159       -2.14567       -1.85349
C         -0.39794       -1.32369       -1.91861
C         -2.71075       -3.94081        0.25519
C         -1.77372       -4.25818        1.40097
C         -1.85847       -2.91579       -2.94159
H         -2.71395       -3.56828       -2.87411
C         -1.11429       -2.84679       -4.10642
H         -1.39258       -3.44494       -4.95871
C         -0.01698       -2.01041       -4.17715
H          0.56133       -1.95368       -5.08467
C          0.34282       -1.24844       -3.07987
H          1.19800       -0.59423       -3.12406
Pd        -1.43882       -0.85606        1.21761
Cl        -3.14984       -1.25458        2.61142
Cl        -0.31356        0.47604        2.62515
C         -4.20519       -3.97996        0.62158
C         -4.25064       -1.70341       -0.56409
H         -1.90817       -5.28310        1.75454
H         -0.72879       -4.13463        1.10576
H         -1.95651       -3.59206        2.24623
H         -4.31474       -3.70962        1.68100
H         -4.59458       -5.00596        0.53621
H         -4.44126       -0.94295        0.20474
C         -5.03228       -2.99483       -0.25115
C         -4.51222       -1.14920       -1.95019
H         -2.50869       -4.59051       -0.60638
H         -5.29932       -3.48442       -1.19757
H         -5.99018       -2.75295        0.23344
H         -4.36151       -1.91678       -2.71045
H         -5.53869       -0.78858       -2.04918
H         -3.83738       -0.32523       -2.18837
C         -0.98922        4.04512       -1.00188
C         -2.00329        3.05295       -1.02476
C         -1.62240        1.72551       -0.91088
C         -0.31471        1.38410       -0.67869
C          0.64356        2.34943       -0.50890
C          0.33424        3.69286       -0.63353
O         -1.28279        5.37771       -1.39481
C         -3.49594        3.39108       -1.16216
H         -2.34856        0.93495       -0.98639
H          1.64452        2.03948       -0.26948
C          1.43006        4.74267       -0.39414
C          4.39818       -1.13853        0.76736
C          3.33138       -1.52257        1.61846
C          2.03501       -1.29657        1.18763
C          1.77969       -0.64197        0.01084
C          2.81059       -0.17578       -0.76438
C          4.13136       -0.37743       -0.39885
O          5.72808       -1.53865        1.06585
C          3.55529       -2.17811        2.99069
H          1.19935       -1.62436        1.78051
H          2.57001        0.35670       -1.66740
C          5.25271        0.20108       -1.27702
C         -3.80269        4.81165       -0.65338
C         -3.91181        3.25830       -2.63456
C         -4.34321        2.42217       -0.30666
C          0.83313        6.05102        0.15582
C          2.44772        4.23741        0.65370
C          2.16851        5.01481       -1.71309
C         -1.15583        5.59955       -2.79350
H         -4.87276        5.01571       -0.68124
H         -3.46049        4.93283        0.37385
H         -3.30884        5.56640       -1.25989
H         -4.97049        3.48193       -2.76335
H         -3.34358        3.93968       -3.26463
H         -3.73404        2.24603       -2.99662
H         -4.30666        1.40581       -0.69121
H         -3.99064        2.40774        0.72436
H         -5.39012        2.72436       -0.29956
H          0.26311        5.86020        1.06447
H          1.61645        6.77114        0.39092
H          0.16539        6.51546       -0.56584
H          3.03087        3.39776        0.28011
H          3.15365        5.02416        0.91863
H          1.93991        3.92197        1.56477
H          2.96928        5.73991       -1.57012
H          2.60825        4.09830       -2.10564
H          1.49060        5.40732       -2.46788
H         -2.12866        5.84709       -3.21763
H         -0.48036        6.43699       -2.96863
H         -0.76401        4.70820       -3.28517
C          6.08640       -2.80837        0.53517
C          3.58626       -3.70513        2.82766
C          4.86356       -1.68438        3.63462
C          2.41028       -1.80890        3.96261
C          5.66846       -0.84342       -2.32377
C          4.77575        1.47207       -2.01578
C          6.46660        0.60977       -0.42269
H          4.39028       -4.01517        2.16456
H          3.73351       -4.19732        3.78866
H          2.64950       -4.06615        2.40357
H          4.98932       -2.09905        4.63446
H          5.73045       -1.97525        3.04683
H          4.86445       -0.59788        3.71527
H          2.26603       -0.72944        3.99947
H          1.46765       -2.26940        3.67085
H          2.63348       -2.15182        4.97255
H          6.03749       -1.75017       -1.85102
H          4.82088       -1.11810       -2.95132
H          6.45609       -0.45667       -2.96995
H          4.01245        1.24550       -2.75869
H          4.36922        2.19853       -1.31361
H          5.60342        1.94599       -2.54306
H          6.17019        1.31743        0.35089
H          7.23666        1.07875       -1.03469
H          6.91507       -0.25122        0.06684
H          6.34728       -3.48546        1.34827
H          5.25908       -3.22897       -0.03781
H          6.95839       -2.70073       -0.10976
