72
-108.40364112
Cl         1.72851       -0.88989        2.66960
Cl        -0.92816        0.89031        2.77476
P         -1.12076        1.14443       -0.26656
P          2.25697       -0.12619       -0.37579
C          3.25454        1.46706       -0.11478
C          3.61100        1.59951        1.36739
C          4.51999        1.43489       -0.96409
C          3.33189       -1.68122       -0.14921
C          4.15165       -1.95181       -1.41743
C          1.44792       -0.39246       -2.05932
C          1.51084        0.78900       -3.00472
C         -1.13235       -0.18612       -1.50587
C          0.03056       -0.93119       -1.98568
C         -0.48139       -2.02205       -2.81798
C         -1.92633       -1.91425       -2.89111
C         -2.32560       -0.78059       -2.07919
C          2.39746        2.66594       -0.49740
H          4.11205        2.55022        1.55686
H          2.72010        1.56908        1.99467
H          5.05050        2.38615       -0.89746
H          4.29283        1.25678       -2.01421
C          4.28243       -1.56520        1.03837
H          4.91948       -2.70215       -1.22161
H          4.65271       -1.05460       -1.77590
H          2.05213       -1.19283       -2.49637
H          0.86261        1.58985       -2.65666
H          1.15287        0.51317       -3.99877
H          2.52219        1.17783       -3.11815
H          0.13450       -2.71762       -3.39170
H         -2.59337       -2.56030       -3.46648
Pd         0.51114        0.24125        1.17007
H         -3.34591       -0.44107       -1.88828
C          2.36078       -2.82936        0.08314
H          3.53796       -2.34425       -2.22740
H          3.75564       -1.27774        1.94588
H          4.76460       -2.52390        1.23493
H          5.07669       -0.84585        0.84745
H          1.85659       -2.71641        1.04162
H          1.60719       -2.87019       -0.70461
H          2.88460       -3.78720        0.09841
H          4.28325        0.81469        1.70316
H          5.20728        0.66000       -0.62871
H          2.16927        2.68734       -1.55984
H          1.46338        2.65852        0.06128
H          2.91164        3.59972       -0.26346
C         -2.79770        1.23176        0.41683
C         -3.25658        2.22205        1.24952
C         -4.58325        1.91938        1.55564
C         -4.88227        0.75496        0.89278
O         -3.79558        0.32271        0.18917
H         -2.68886        3.06247        1.61284
H         -5.24288        2.48687        2.19161
H         -5.83489        0.24028        0.91572
C         -0.73508        2.76109       -0.96276
C         -0.64008        3.90368       -0.20706
C         -0.33295        4.94724       -1.08126
C         -0.25407        4.39630       -2.33679
O         -0.49516        3.05319       -2.27772
H         -0.75822        3.96928        0.86257
H         -0.18566        5.98277       -0.82136
H         -0.03170        4.93376       -3.25028
Fe        -1.30420       -2.12488       -0.96093
C         -2.99556       -2.80949       -0.00749
C         -2.18052       -2.01673        0.89205
C         -0.87760       -2.63986        0.97741
C         -0.87983       -3.81612        0.12776
C         -2.19363       -3.92403       -0.47975
H         -4.03701       -2.60768       -0.26788
H         -2.49088       -1.11176        1.41781
H         -0.06851       -2.30378        1.62825
H         -0.06001       -4.52814        0.00965
H         -2.52667       -4.71468       -1.15574
