111
-148.55572823
P         -2.21084       -2.14121       -1.37151
P          0.15061       -0.19430       -0.58948
C         -1.10957       -1.51331       -2.66015
C         -0.09312       -0.64855       -2.31833
C         -2.32543       -3.98585       -1.40424
C         -1.44576       -4.60876       -0.34122
C         -1.28250       -1.89383       -3.97527
H         -2.06964       -2.58479       -4.23025
C         -0.44170       -1.39050       -4.95272
H         -0.57627       -1.68415       -5.98095
C          0.56902       -0.51252       -4.61113
H          1.22345       -0.11966       -5.37180
C          0.74523       -0.14252       -3.28970
H          1.53438        0.53620       -3.00940
Pd        -1.43985       -1.35411        0.65138
Cl        -3.25537       -2.19732        1.65494
Cl        -0.47016       -0.52337        2.49688
C         -3.83251       -4.23348       -1.21290
C         -3.99455       -1.70300       -1.62457
H         -1.51270       -5.69909       -0.35607
H         -0.39802       -4.33076       -0.47973
H         -1.74525       -4.27453        0.65393
H         -4.03977       -4.32666       -0.13775
H         -4.12193       -5.19918       -1.65487
H         -4.31533       -1.23095       -0.68646
C         -4.68048       -3.07244       -1.80405
C         -4.18891       -0.76360       -2.79786
H         -2.00822       -4.29907       -2.40747
H         -4.84030       -3.24960       -2.87630
H         -5.68606       -3.05665       -1.35753
H         -5.23100       -0.44862       -2.88932
H         -3.56949        0.13019       -2.70518
H         -3.91189       -1.24949       -3.73441
C         -1.28232        4.04206        0.27128
C         -2.17556        3.08126       -0.27006
C         -1.68173        1.81945       -0.56130
C         -0.39316        1.47606       -0.24148
C          0.42325        2.35431        0.42271
C         -0.00026        3.63718        0.72267
O         -1.64416        5.41449        0.31168
C         -3.65791        3.38128       -0.54125
H         -2.30371        1.07846       -1.03254
H          1.40319        2.02200        0.71366
C          0.93540        4.57368        1.50200
C          4.37675       -0.96658        0.93408
C          4.14788        0.08685        0.01241
C          2.85293        0.30186       -0.42944
C          1.82666       -0.52277       -0.04546
C          2.06729       -1.61369        0.74828
C          3.33726       -1.88483        1.22881
O          5.63052       -1.07821        1.59192
C          5.27004        1.01291       -0.48337
H          2.62643        1.13597       -1.07042
H          1.23703       -2.24536        1.01211
C          3.55291       -3.13304        2.09821
C         -3.83826        3.73462       -2.02496
C         -4.52054        2.14444       -0.20400
C         -4.17530        4.53259        0.34062
C          1.82238        3.76640        2.47710
C          1.84001        5.32453        0.51358
C          0.13367        5.57745        2.35048
C         -1.32146        6.12059       -0.87953
H         -4.88287        3.94530       -2.25256
H         -3.25067        4.61096       -2.29203
H         -3.51357        2.91132       -2.66073
H         -4.32745        1.80472        0.81324
H         -5.58198        2.37731       -0.28494
H         -4.32211        1.31648       -0.87999
H         -3.99903        4.31743        1.39399
H         -3.67690        5.46914        0.10440
H         -5.24506        4.68463        0.19931
H          1.21250        3.12812        3.11591
H          2.53644        3.13727        1.94874
H          2.39741        4.43268        3.11970
H          2.53355        5.98020        1.03946
H          2.42362        4.62451       -0.08395
H          1.25265        5.93495       -0.16898
H          0.79568        6.19631        2.95562
H         -0.45661        6.24206        1.72415
H         -0.54883        5.05471        3.01974
H         -0.73746        7.00648       -0.62956
H         -0.74576        5.48464       -1.55322
H         -2.23571        6.43917       -1.37971
C          5.71129       -0.34471        2.80769
C          6.61903        0.27285       -0.53702
C          4.97300        1.50850       -1.91706
C          5.37187        2.23295        0.44469
C          3.29793       -2.77358        3.56989
C          2.57442       -4.25834        1.68982
C          4.97683       -3.69167        1.92534
H          6.94186       -0.03695        0.45366
H          6.54257       -0.61943       -1.15746
H          7.39932        0.90967       -0.95308
H          4.11701        2.18118       -1.94278
H          5.82318        2.05855       -2.31991
H          4.77111        0.66973       -2.58278
H          4.43888        2.79532        0.44444
H          5.57781        1.93355        1.46960
H          6.16829        2.90330        0.12253
H          3.98240       -2.00069        3.91107
H          2.28311       -2.39953        3.70384
H          3.42520       -3.64421        4.21263
H          2.81178       -5.18529        2.21133
H          1.54433       -4.00776        1.93897
H          2.63188       -4.45263        0.61911
H          5.72576       -2.98305        2.27001
H          5.17929       -3.90799        0.87692
H          5.10835       -4.61225        2.49342
H          6.51171        0.39175        2.73896
H          4.76678        0.16237        3.00930
H          5.94220       -1.02297        3.62897
