58
-89.86880925
P          1.60242        0.30951        0.91875
C          2.98013        1.42374        0.63494
C          4.18834        0.92894        0.20020
C          5.24265        1.79412       -0.03030
C          5.07688        3.14965        0.17526
C          3.86165        3.64148        0.60963
C          2.80895        2.77352        0.83991
H          1.85071        3.14359        1.16933
H          4.29959       -0.13082        0.03692
C          1.97960       -1.34450        0.32071
C          2.01415       -1.54004       -1.04154
C          2.27430       -2.79697       -1.55450
C          2.50484       -3.85237       -0.69505
C          2.48688       -3.64989        0.67092
C          2.22811       -2.39022        1.18024
H          2.23548       -2.22046        2.24415
H          1.83884       -0.69995       -1.69519
C          1.18925        0.35482        2.70718
C          0.03494       -0.54758        3.10755
C         -1.32855       -0.05020        2.65878
P         -1.64715       -0.20724        0.85602
C         -3.30149        0.41027        0.53504
C         -3.57862        1.74019        0.75350
C         -4.84776        2.22790        0.49660
C         -5.82845        1.37894        0.02239
C         -5.54433        0.04532       -0.19662
C         -4.27457       -0.43920        0.06054
H         -4.03517       -1.47598       -0.11231
H         -2.79924        2.39302        1.11414
C         -1.46239       -1.89086        0.24938
C         -1.39238       -2.07586       -1.11297
C         -1.22488       -3.34601       -1.63194
C         -1.13407       -4.42721       -0.77846
C         -1.22208       -4.24097        0.58710
C         -1.39187       -2.96864        1.10232
H         -1.48527       -2.81916        2.16516
H         -1.47323       -1.21802       -1.76195
Pd        -0.12836        0.90980       -0.49596
Cl         1.38361        1.71396       -1.95160
Cl        -1.81247        1.21674       -1.95613
H         -2.13434       -0.60131        3.14999
H         -1.46131        1.00062        2.92237
H          0.20492       -1.55518        2.71054
H          0.03290       -0.66569        4.20247
H          2.10869        0.08204        3.23110
H          0.97580        1.39319        2.96710
H          6.18940        1.41063       -0.37361
H          3.73074        4.69983        0.76453
H          2.29227       -2.95130       -2.62078
H          2.67420       -4.47298        1.34080
H         -5.06802        3.26970        0.66208
H         -6.30815       -0.61634       -0.57086
H         -1.16132       -3.48911       -2.69803
H         -1.15827       -5.08657        1.25208
H          5.89642        3.82550       -0.00723
H          2.70233       -4.83517       -1.09094
H         -6.81651        1.75874       -0.18061
H         -0.99752       -5.41853       -1.17880
