72
-98.09966732
Fe         0.00918        2.84908        0.07086
P          1.85932       -0.02738       -0.05127
P         -1.80636       -0.03823        0.03165
C          1.41806        1.57383        0.71525
C          0.41148        1.76154        1.74552
C          0.35863        3.17645        2.06868
C          1.34803        3.85877        1.25296
C          2.02346        2.86555        0.43416
C         -1.40795        1.61300       -0.66969
C         -2.01896        2.87781       -0.28694
C         -1.37760        3.93592       -1.04683
C         -0.38528        3.32377       -1.90987
C         -0.42955        1.88756       -1.70550
C          3.27830       -0.71558        0.92844
C          4.46858        0.05090        0.32912
C          2.79841        0.24043       -1.63723
C          4.27473        0.34636       -1.18405
C         -3.11489       -0.79267       -1.05599
C         -4.32040        0.09726       -0.70773
C         -2.94862        0.25567        1.47721
C         -4.31361        0.51602        0.79332
H         -0.19690        0.97296        2.18951
H         -0.29837        3.64155        2.80724
H          1.56972        4.92827        1.27521
H          2.82790        3.05163       -0.28044
H         -2.80046        3.01286        0.46270
H          0.18836        1.14825       -2.20967
Cl         1.62082       -3.08773       -0.20395
Cl        -1.56355       -3.06485        0.33854
Pd         0.03555       -1.50741        0.03070
H          3.35056       -1.78220        0.68759
C          3.14067       -0.52262        2.43477
H          2.44924        1.18738       -2.06549
C          2.59342       -0.90172       -2.63361
H          5.40679       -0.49697        0.50806
H          4.57737        0.99781        0.87775
H          4.68470        1.33523       -1.43759
H          4.87263       -0.36599       -1.76918
H         -1.60646        5.00193       -0.98444
H          0.25751        3.84850       -2.62021
H          4.09682       -0.77234        2.91534
H          3.38872       -0.86255       -3.39122
H         -3.29272       -1.81129       -0.69182
C         -2.75210       -0.82527       -2.54455
H         -2.58412        1.14809        1.99983
C         -3.02346       -0.92227        2.44634
H         -5.26224       -0.40647       -0.97565
H         -4.27788        0.99357       -1.34404
H         -4.60562        1.57119        0.89817
H         -5.08952       -0.04535        1.33260
H         -3.66489       -0.68493       -3.14018
H         -3.30682       -1.82054        1.88250
C          2.02369       -1.34788        3.04456
H          1.06317       -1.06205        2.62098
H          2.16110       -2.41217        2.84453
H          1.95675       -1.21832        4.12716
C          1.24275       -0.89507       -3.32696
H          1.10890        0.00573       -3.92896
H          1.12078       -1.75243       -3.99291
H          0.43034       -0.92780       -2.60318
C         -2.06993       -2.12071       -2.96195
H         -1.19440       -2.32954       -2.34758
H         -2.74125       -2.97338       -2.84340
H         -1.74791       -2.09951       -4.00544
C         -1.74479       -1.17561        3.22248
H         -1.85804       -1.98758        3.94452
H         -0.93596       -1.45677        2.55129
H         -1.42866       -0.28787        3.77321
H          2.98336        0.54382        2.64264
H          2.74705       -1.85202       -2.10571
H         -2.12298        0.04281       -2.77839
H         -3.85090       -0.75077        3.14900
