58
-89.86559829
P          1.85256       -0.30032        0.50172
C          1.84383        1.46552        0.86454
C          1.66299        2.32357       -0.19684
C          1.61577        3.68903        0.01327
C          1.75296        4.18961        1.29222
C          1.94311        3.32882        2.35494
C          1.99181        1.96358        2.13986
H          2.14934        1.29184        2.96660
H          1.55663        1.91334       -1.18900
C          3.30220       -0.74449       -0.45643
C          4.34516        0.14352       -0.58715
C          5.45460       -0.20535       -1.33601
C          5.50920       -1.44173       -1.94896
C          4.45922       -2.32889       -1.81529
C          3.35099       -1.97751       -1.06488
H          2.51859       -2.65552       -0.95823
H          4.28478        1.10714       -0.10761
C          1.80941       -1.35300        2.01721
C          0.41328       -1.71010        2.50994
C         -0.53854       -0.52246        2.59133
P         -1.42009       -0.32583        0.98988
C         -2.17310        1.30099        0.82969
C         -3.41082        1.42801        0.24115
C         -3.97797        2.68050        0.08971
C         -3.29625        3.80092        0.52164
C         -2.04792        3.67154        1.09687
C         -1.48535        2.41729        1.24707
H         -0.49593        2.30992        1.65771
H         -3.92196        0.54743       -0.11316
C         -2.66504       -1.62246        0.92178
C         -2.46218       -2.74776        0.15586
C         -3.41951       -3.74571        0.13163
C         -4.57093       -3.61343        0.88220
C         -4.76572       -2.48841        1.65876
C         -3.80651       -1.49158        1.68037
H         -3.94165       -0.61009        2.28732
H         -1.55982       -2.83923       -0.42702
Pd        -0.02331       -0.36590       -0.86392
Cl         1.26762       -0.00340       -2.66254
Cl        -1.92720       -0.59624       -2.03869
H         -1.31294       -0.66614        3.34892
H         -0.01120        0.39720        2.84316
H         -0.03075       -2.46613        1.84573
H          0.49054       -2.20410        3.49156
H          2.38682       -2.25389        1.79497
H          2.36899       -0.81774        2.78571
H          1.46801        4.35799       -0.81843
H          2.05439        3.72055        3.35275
H          6.27236        0.48823       -1.44316
H          4.49967       -3.29157       -2.29779
H         -4.94702        2.78085       -0.37083
H         -1.50673        4.54583        1.41927
H         -3.26684       -4.62354       -0.47450
H         -5.66239       -2.38631        2.24769
H          1.71364        5.25341        1.46102
H          6.37174       -1.71373       -2.53530
H         -3.73509        4.77801        0.40146
H         -5.31814       -4.38998        0.86274
