111
-148.55655923
P         -1.68321       -2.72166        0.10130
P         -0.47794        0.14580       -0.53758
C         -1.69796       -2.08768       -1.60028
C         -1.23257       -0.81623       -1.86475
C         -0.55138       -4.17483        0.25914
C          0.64481       -3.83172        1.12126
C         -2.14707       -2.88353       -2.63444
H         -2.47459       -3.88927       -2.42741
C         -2.15184       -2.39375       -3.92914
H         -2.50603       -3.01380       -4.73644
C         -1.69732       -1.11495       -4.18887
H         -1.69595       -0.73608       -5.19766
C         -1.22653       -0.32689       -3.15396
H         -0.83828        0.66164       -3.34308
Pd        -1.29342       -0.84727        1.38052
Cl        -1.73001       -2.08137        3.20133
Cl        -0.84124        1.06544        2.47294
C         -1.46134       -5.27136        0.84853
C         -3.28049       -3.48871        0.63596
H          1.30669       -4.69170        1.24723
H          1.22827       -3.01725        0.68785
H          0.32487       -3.50986        2.11427
H         -1.29736       -5.31689        1.93393
H         -1.16691       -6.26015        0.46554
H         -3.41942       -3.18161        1.68124
C         -2.96659       -4.99417        0.56912
C         -4.45646       -3.03890       -0.20470
H         -0.24139       -4.43353       -0.76190
H         -3.23221       -5.36889       -0.42894
H         -3.60601       -5.54955        1.27232
H         -5.39046       -3.48169        0.14866
H         -4.56649       -1.95227       -0.18147
H         -4.33058       -3.33230       -1.24723
C         -0.82781        4.67006       -0.90362
C          0.44097        4.07702       -0.68144
C          0.50829        2.69851       -0.57283
C         -0.60492        1.91765       -0.74219
C         -1.81481        2.47872       -1.05664
C         -1.95130        3.85159       -1.18795
O         -0.98227        6.07830       -0.80271
C          1.72768        4.89992       -0.51198
H          1.43845        2.21336       -0.33558
H         -2.65941        1.82411       -1.18830
C         -3.31255        4.43267       -1.60173
C          3.69685       -1.51204        0.20328
C          3.13630       -0.57751        1.11413
C          1.87078       -0.08558        0.84803
C          1.20727       -0.41702       -0.30326
C          1.79147       -1.22610       -1.24158
C          3.05425       -1.75767       -1.03968
O          4.84277       -2.26212        0.57324
C          3.83422       -0.08877        2.39356
H          1.35851        0.52787        1.56982
H          1.23511       -1.46560       -2.13140
C          3.66675       -2.59474       -2.17446
C          1.67213        6.19905       -1.33599
C          1.92833        5.22276        0.97662
C          2.95412        4.10339       -1.01330
C         -4.07693        3.43938       -2.50638
C         -4.15490        4.69978       -0.34523
C         -3.13914        5.73134       -2.41039
C         -1.30066        6.53175        0.50709
H          0.87906        6.85644       -0.98907
H          2.61024        6.74888       -1.26440
H          1.48719        5.97899       -2.38686
H          2.84204        5.79558        1.13284
H          1.09639        5.80207        1.36990
H          1.99918        4.30690        1.56289
H          2.79690        3.75083       -2.03230
H          3.84812        4.72657       -1.00880
H          3.16317        3.24196       -0.38125
H         -4.98232        3.89691       -2.90455
H         -3.46004        3.12938       -3.34951
H         -4.38343        2.54903       -1.95950
H         -4.30428        3.78068        0.22085
H         -3.66740        5.41639        0.31123
H         -5.13456        5.09743       -0.60898
H         -2.67880        6.51334       -1.81169
H         -2.50578        5.56001       -3.28015
H         -4.10063        6.10704       -2.75945
H         -0.52066        7.20509        0.86196
H         -2.24094        7.08239        0.48446
H         -1.38971        5.68622        1.19045
C          4.51918       -3.46380        1.25423
C          3.70556        1.44780        2.49127
C          3.15727       -0.72809        3.61797
C          5.33709       -0.41607        2.40382
C          2.95060       -3.95397       -2.24732
C          3.47968       -1.85425       -3.51740
C          5.17838       -2.81458       -1.99086
H          4.11874        1.92494        1.60327
H          2.66805        1.76201        2.59137
H          4.24468        1.82836        3.35835
H          3.61569       -0.37911        4.54277
H          2.09767       -0.47659        3.65350
H          3.23894       -1.81291        3.59198
H          5.50676       -1.48943        2.43989
H          5.82013       -0.03150        1.50624
H          5.82905        0.02438        3.27073
H          1.88368       -3.82257       -2.42560
H          3.35307       -4.56336       -3.05601
H          3.06472       -4.51046       -1.31918
H          2.42869       -1.75886       -3.78504
H          3.90725       -0.85327       -3.46696
H          3.97279       -2.39003       -4.32813
H          5.38625       -3.42078       -1.11260
H          5.69273       -1.86208       -1.86816
H          5.60846       -3.32517       -2.85218
H          3.89274       -3.24830        2.11818
H          3.98020       -4.13769        0.59083
H          5.43814       -3.94729        1.58617
