105
-153.06765694
Cl        -0.87400        2.66050       -2.59904
Pd        -0.06109        1.72401       -0.71692
P          1.10879        0.58530        0.99224
N          0.43388       -0.81011        1.84002
C         -0.07500       -2.06585        1.52853
C         -0.03847       -2.65156        0.24013
C         -0.67636       -3.88779        0.01315
C         -0.66341       -4.47078       -1.38065
C         -1.00742       -5.96696       -1.43309
C         -2.24692       -6.26780       -0.58487
C         -2.01498       -5.87464        0.88286
C         -1.31464       -4.55030        1.06327
C         -1.29167       -3.98570        2.33198
C         -0.68544       -2.77744        2.56047
H         -0.70747       -2.34301        3.54493
H         -1.77237       -4.50675        3.14272
H         -2.97062       -5.84346        1.42191
H         -3.10172       -5.70559       -0.98169
H         -1.15337       -6.30018       -2.47035
H         -1.37351       -3.91060       -1.99997
C          0.69660       -2.01637       -0.87876
C         -0.01724       -1.19734       -1.78690
C          0.67127       -0.63105       -2.86237
C          1.98644       -0.94511       -3.09277
C          2.67122       -1.83232       -2.26811
C          4.07293       -2.23820       -2.64032
C          4.47060       -3.59784       -2.04786
C          4.19710       -3.62587       -0.54064
C          2.71691       -3.34478       -0.22336
C          2.03465       -2.35583       -1.14090
H          2.15569       -4.28597       -0.25627
H          4.82606       -2.87358       -0.05163
H          5.52484       -3.82598       -2.26012
H          4.77024       -1.46618       -2.29814
H          2.49735       -0.52160       -3.94071
H          0.14064        0.03532       -3.51925
N         -1.41016       -1.02344       -1.65275
P         -1.97654        0.37477       -0.75130
C         -2.58409       -0.01649        0.88385
C         -3.24055       -1.19883        1.13201
C         -3.71781       -1.46398        2.40256
C         -3.54460       -0.54480        3.42813
C         -2.91278        0.65865        3.14646
C         -2.43180        0.92155        1.87589
H         -1.94809        1.85939        1.64972
H         -2.80601        1.39144        3.92814
C         -4.06654       -0.82647        4.79366
H         -4.22441       -2.39194        2.60616
H         -3.37976       -1.91290        0.33707
C         -3.23070        1.28160       -1.64865
C         -3.85743        2.36619       -1.08363
C         -4.80574        3.06282       -1.81068
C         -5.12350        2.68188       -3.10794
C         -4.48332        1.57836       -3.65654
C         -3.53529        0.88304       -2.92712
H         -3.02000        0.03452       -3.34847
H         -4.72775        1.26980       -4.65854
C         -6.15859        3.42110       -3.88234
H         -5.30402        3.91147       -1.37408
H         -3.60261        2.66475       -0.07952
H         -1.92189       -1.78058       -1.21805
H          0.55248       -0.61399        2.82645
C          1.22175        1.88423        2.24192
C          0.30574        1.94655        3.26460
C          0.40306        2.93403        4.22744
C          1.42447        3.87191        4.17551
C          2.35590        3.78240        3.15081
C          2.25338        2.79210        2.19132
H          2.97626        2.72719        1.39429
H          3.16219        4.49454        3.10747
C          1.54493        4.92454        5.22188
H         -0.31525        2.98051        5.02815
H         -0.48092        1.21517        3.31543
C          2.81741        0.24636        0.56794
C          3.42593        0.79338       -0.53652
C          4.77234        0.57640       -0.75979
C          5.52134       -0.18809        0.12418
C          4.89734       -0.70851        1.24974
C          3.54798       -0.49262        1.46801
H          3.05948       -0.88888        2.34448
H          5.47372       -1.28261        1.95494
C          6.97484       -0.41070       -0.10905
H          5.25252        1.00883       -1.62099
H          2.85403        1.41179       -1.20707
Cl         1.58319        3.25272       -0.67288
H         -1.42283       -6.65061        1.38261
H         -0.15783       -6.54843       -1.05355
H         -2.52754       -7.32740       -0.66727
H          0.31827       -4.29509       -1.83723
H          4.50967       -4.58729       -0.10952
H          2.61294       -2.98677        0.80835
H          4.16589       -2.25481       -3.73375
H          3.89115       -4.39095       -2.53706
H         -5.09905       -0.48841        4.89135
H         -4.03943       -1.89504        5.01195
H         -3.47208       -0.31877        5.55460
H         -6.17806        4.47605       -3.60531
H         -5.96328        3.36489       -4.95411
H         -7.15039        3.00591       -3.69830
H          1.99190        5.83310        4.81593
H          0.56778        5.19005        5.62776
H          2.17038        4.58098        6.04693
H          7.56715        0.37657        0.35912
H          7.29803       -1.36703        0.30466
H          7.20592       -0.41730       -1.17523
