111
-148.55543635
P         -1.66649       -2.72126        0.14301
P         -0.46953        0.12192       -0.55955
C         -1.72311       -2.11622       -1.56691
C         -1.25289       -0.85319       -1.85987
C         -0.53827       -4.17735        0.29429
C          0.69140       -3.81941        1.10134
C         -2.20536       -2.92201       -2.57815
H         -2.53705       -3.92155       -2.34893
C         -2.23796       -2.44953       -3.87887
H         -2.61828       -3.07674       -4.66855
C         -1.77811       -1.17872       -4.16727
H         -1.79905       -0.81326       -5.18076
C         -1.27460       -0.38108       -3.15534
H         -0.88393        0.60184       -3.36726
Pd        -1.23070       -0.84177        1.39265
Cl        -1.58546       -1.98534        3.29066
Cl        -0.76429        1.05888        2.50551
C         -1.43203       -5.25242        0.94461
C         -3.24995       -3.46681        0.74419
H          0.41127       -3.47325        2.09826
H          1.35474       -4.67914        1.22157
H          1.25960       -3.01728        0.62629
H         -1.23203       -5.26826        2.02481
H         -1.15467       -6.25301        0.57999
H         -3.35616       -3.13132        1.78467
C         -2.94454       -4.97510        0.70737
C         -4.44755       -3.03309       -0.07398
H         -0.26862       -4.46337       -0.73095
H         -3.24414       -5.37471       -0.27124
H         -3.56285       -5.50847        1.44560
H         -5.37307       -3.46121        0.31772
H         -4.55172       -1.94562       -0.07674
H         -4.35292       -3.35487       -1.11146
C         -0.97090        4.63607       -0.87204
C          0.31001        4.08649       -0.61128
C          0.42537        2.70967       -0.52438
C         -0.65029        1.89107       -0.74916
C         -1.86743        2.41295       -1.10158
C         -2.05005        3.78190       -1.21672
O         -1.18400        6.03460       -0.74659
C          1.55632        4.95290       -0.37223
H          1.36359        2.25588       -0.25919
H         -2.68183        1.73056       -1.27560
C         -3.41389        4.31885       -1.67861
C          3.76508       -1.42618        0.07357
C          3.19966       -0.51519        1.00208
C          1.91420       -0.05946        0.77019
C          1.23191       -0.40651       -0.36546
C          1.80700       -1.21327       -1.31117
C          3.08746       -1.71221       -1.13975
O          4.98745       -2.08297        0.37721
C          3.92286       -0.06506        2.28020
H          1.39834        0.53508        1.50432
H          1.22656       -1.47353       -2.17872
C          3.69196       -2.59948       -2.23868
C          1.48116        6.27129       -1.16342
C          1.68786        5.24202        1.13098
C          2.83045        4.21753       -0.84749
C         -4.09523        3.31826       -2.63985
C         -4.32166        4.52157       -0.45613
C         -3.25786        5.64292       -2.44873
C         -1.57599        6.44266        0.55820
H          2.39408        6.85378       -1.04187
H          1.34374        6.07358       -2.22595
H          0.65116        6.88867       -0.82965
H          0.81934        5.77818        1.50622
H          1.77191        4.31371        1.69564
H          2.57182        5.84477        1.33757
H          3.05035        3.34785       -0.23070
H          2.72414        3.88684       -1.88029
H          3.69858        4.87409       -0.79381
H         -4.99960        3.74890       -3.06914
H         -3.42848        3.05387       -3.46027
H         -4.38929        2.40310       -2.12826
H         -5.30376        4.88687       -0.75523
H         -4.45910        3.58366        0.08139
H         -3.89320        5.24046        0.23804
H         -2.57940        5.51860       -3.29207
H         -4.21728        5.98830       -2.83303
H         -2.85752        6.42778       -1.81187
H         -1.66320        5.57719        1.21641
H         -0.83765        7.13406        0.96383
H         -2.53432        6.95924        0.50691
C          4.83145       -3.30626        1.08655
C          3.58130       -1.03558        3.42137
C          5.44579       -0.00352        2.06637
C          3.46984        1.35515        2.69122
C          5.22180       -2.44131       -2.30252
C          3.31861       -4.06516       -1.96763
C          3.14066       -2.20167       -3.62710
H          3.90008       -2.04844        3.18761
H          4.06789       -0.73485        4.34874
H          2.50584       -1.05963        3.59665
H          5.95132        0.37219        2.95561
H          5.85669       -0.98499        1.84472
H          5.68936        0.65557        1.23373
H          2.42964        1.37131        3.01275
H          4.06678        1.72534        3.52432
H          3.58397        2.05304        1.86263
H          5.64202       -3.02317       -3.12248
H          5.49329       -1.39705       -2.45346
H          5.69516       -2.77891       -1.38413
H          3.69935       -4.39853       -1.00534
H          2.23611       -4.19084       -1.95653
H          3.72644       -4.72071       -2.73658
H          2.08231       -2.43919       -3.72466
H          3.66228       -2.73924       -4.41866
H          3.27155       -1.13459       -3.80490
H          5.26489       -4.12238        0.50876
H          5.35821       -3.24764        2.03884
H          3.77588       -3.51019        1.26788
