171
-217.84193440
P         -1.50770        0.15513       -0.37772
P          1.68697       -0.62046        0.38271
C         -0.55750        0.91973       -1.70280
C          1.06255       -1.72636       -0.90205
C          0.36393        0.14911       -2.40069
C          1.13459        0.75378       -3.41220
C          0.91485        2.08760       -3.71696
C         -0.02329        2.83014       -3.03005
C         -0.75743        2.24044       -2.02002
C          1.10962       -3.06203       -0.57853
C          0.59947       -4.00839       -1.44605
C          0.02800       -3.60347       -2.63292
C         -0.04571       -2.26253       -2.97010
C          0.48890       -1.29905       -2.09394
Cl         0.72024       -0.75349        3.48740
Cl        -2.29261       -1.25753        2.46132
C         -0.70911       -1.87554       -4.24558
C          2.15683       -0.02418       -4.16475
H         -0.18065        3.86722       -3.27762
H         -1.49675        2.80921       -1.48262
H          1.53981       -3.36115        0.36610
H          0.64050       -5.05474       -1.19112
H          1.48221        2.54283       -4.51066
H         -0.38206       -4.33386       -3.30998
C         -4.13282       -3.04560       -2.21682
C         -3.44668       -3.33968       -1.04549
C         -2.66572       -2.33939       -0.48302
C         -2.56035       -1.11221       -1.08682
C         -3.22299       -0.84795       -2.26079
C         -4.03445       -1.81189       -2.84806
H         -4.77249       -3.79682       -2.64165
H         -2.14102       -2.50721        0.43968
H         -3.08309        0.11035       -2.72953
C         -4.20662        3.33691        1.45004
C         -3.25063        2.74981        2.26723
C         -2.42019        1.78864        1.70774
C         -2.56281        1.40850        0.39382
C         -3.53517        1.98460       -0.38764
C         -4.37071        2.97075        0.12134
H         -4.84387        4.09819        1.86113
H         -1.66316        1.32546        2.31155
H         -3.63430        1.66457       -1.40902
C          5.63948       -2.34715        1.78000
C          4.74200       -1.90001        2.74280
C          3.52758       -1.39048        2.30769
C          3.22555       -1.33862        0.97170
C          4.12032       -1.79164        0.03308
C          5.35233       -2.30429        0.42098
H          6.58971       -2.74062        2.08854
H          2.79891       -1.04315        3.01696
H          3.84434       -1.74564       -1.00678
C          2.78234        3.66958       -0.59763
C          1.69687        3.45051        0.24288
C          1.33915        2.13519        0.51139
C          2.04738        1.09208       -0.03912
C          3.12837        1.33058       -0.85180
C          3.52193        2.62975       -1.14559
H          3.07887        4.67669       -0.82225
H          0.51046        1.92603        1.16413
H          3.67499        0.49088       -1.24299
Pd        -0.34990       -0.63096        1.52218
C         -3.13230       -5.79922       -1.42018
C         -3.57308       -4.72853       -0.40505
C         -5.03785       -4.96700        0.00255
C         -2.68694       -4.85641        0.85033
H         -2.10244       -5.63050       -1.73340
H         -3.19347       -6.79699       -0.98605
H         -3.75941       -5.78451       -2.31071
H         -5.15735       -5.94054        0.47763
H         -5.36919       -4.20414        0.70685
H         -5.69937       -4.93374       -0.86237
H         -2.98269       -4.13856        1.61507
H         -2.77159       -5.85252        1.28418
H         -1.63757       -4.68962        0.60787
C         -4.71260       -2.66245       -5.12723
C         -4.86404       -1.51725       -4.10677
C         -4.41611       -0.20748       -4.78600
C         -6.34201       -1.38316       -3.70023
H         -3.66811       -2.80419       -5.40142
H         -5.08766       -3.60514       -4.73167
H         -5.27017       -2.44523       -6.03820
H         -4.58331        0.65192       -4.13760
H         -3.35844       -0.24313       -5.04584
H         -4.97802       -0.03621       -5.70407
H         -6.96793       -1.16479       -4.56528
H         -6.70660       -2.30308       -3.24390
H         -6.47093       -0.57807       -2.97695
C         -2.08346        2.32742        4.49115
C         -3.15104        3.15347        3.74540
C         -4.50956        2.91079        4.42940
C         -2.77971        4.64343        3.84296
H         -2.31045        1.26235        4.44644
H         -1.09306        2.48547        4.06690
H         -2.03879        2.61158        5.54226
H         -4.80078        1.86418        4.34253
H         -4.46317        3.16169        5.48896
H         -5.29542        3.51561        3.97876
H         -1.82604        4.83481        3.35347
H         -3.53185        5.27050        3.36555
H         -2.69358        4.95709        4.88313
C         -5.48998        3.06890       -2.16246
C         -5.43877        3.65957       -0.73928
C         -5.10964        5.15978       -0.84319
C         -6.82096        3.47178       -0.08692
H         -4.53942        3.20306       -2.67858
H         -5.72301        2.00459       -2.13560
H         -6.25941        3.56002       -2.75798
H         -5.10753        5.63256        0.13834
H         -4.12517        5.30737       -1.28719
H         -5.84132        5.67823       -1.46259
H         -7.60313        3.93018       -0.69183
H         -7.05422        2.41258        0.02034
H         -6.85833        3.92467        0.90301
C          3.97625       -2.81924        4.94553
C          5.03900       -1.94924        4.24822
C          4.99323       -0.52005        4.82008
C          6.42865       -2.54838        4.53714
H          3.97563       -3.82874        4.53507
H          4.16997       -2.88930        6.01566
H          2.97724       -2.40500        4.81477
H          4.00909       -0.07221        4.68698
H          5.21813       -0.51895        5.88643
H          5.72151        0.11811        4.32003
H          7.21636       -1.95242        4.07658
H          6.62172       -2.57724        5.60947
H          6.50154       -3.56892        4.16168
C          5.86303       -2.67294       -2.04534
C          6.38587       -2.79991       -0.60034
C          6.70340       -4.28129       -0.32614
C          7.66929       -1.95909       -0.47168
H          6.60542       -3.03157       -2.75817
H          4.95726       -3.26209       -2.18818
H          5.64317       -1.63493       -2.29403
H          7.42001       -4.66724       -1.05095
H          7.12828       -4.41866        0.66746
H          5.79915       -4.88633       -0.39015
H          8.10805       -2.05552        0.52075
H          8.41707       -2.27458       -1.19908
H          7.45663       -0.90387       -0.64213
C          1.03233        4.42174        2.45199
C          0.94305        4.60290        0.92544
C         -0.53045        4.59334        0.48595
C          1.54507        5.97471        0.56414
H          2.07268        4.39675        2.77557
H          0.53742        5.24058        2.97337
H          0.56372        3.49082        2.76668
H         -1.09130        5.38941        0.97500
H         -0.61116        4.74092       -0.59027
H         -1.00723        3.64806        0.73557
H          2.58892        6.03846        0.87092
H          1.48598        6.15905       -0.50841
H          1.00455        6.77739        1.06574
C          5.74217        3.79644       -1.18611
C          4.76008        2.93411       -2.00166
C          4.33215        3.69471       -3.26850
C          5.49042        1.64344       -2.42342
H          6.03025        3.28562       -0.26746
H          6.64796        4.00095       -1.75671
H          5.29939        4.75331       -0.91265
H          3.82507        4.62597       -3.01857
H          5.19541        3.93862       -3.88745
H          3.65040        3.09200       -3.86633
H          6.37374        1.87497       -3.01839
H          5.81849        1.07758       -1.55163
H          4.84643        1.00493       -3.02663
H         -1.66701       -2.38593       -4.34820
H          1.72048       -0.48792       -5.05016
H         -0.09242       -2.14516       -5.10412
H         -0.90202       -0.80315       -4.29004
H          2.58474       -0.81400       -3.54518
H          2.97528        0.61690       -4.49486
