111
-148.55974592
P         -2.50526       -2.27150       -0.48867
P          0.00493       -0.30312       -0.48381
C         -1.59243       -1.96097       -2.02231
C         -0.50550       -1.11383       -2.01256
C         -3.01428       -4.04238       -0.33047
C         -2.16854       -4.76157        0.69780
C         -1.99250       -2.55561       -3.20172
H         -2.85398       -3.20335       -3.20627
C         -1.29383       -2.30647       -4.37045
H         -1.60469       -2.77132       -5.29181
C         -0.20157       -1.46054       -4.35769
H          0.34209       -1.26544       -5.26738
C          0.19129       -0.85934       -3.17527
H          1.03899       -0.19262       -3.15002
Pd        -1.22202       -1.34463        1.18046
Cl        -2.74829       -2.07227        2.65536
Cl         0.12968       -0.41257        2.70934
C         -4.50843       -3.93614        0.02874
C         -4.15965       -1.44528       -0.46018
H         -2.47211       -5.80559        0.80525
H         -1.11033       -4.74121        0.42602
H         -2.26389       -4.28829        1.67648
H         -4.60875       -3.94956        1.12287
H         -5.05336       -4.82308       -0.32891
H         -4.23242       -0.94429        0.51425
C         -5.14161       -2.63006       -0.53091
C         -4.29213       -0.44911       -1.59262
H         -2.88907       -4.49635       -1.32169
H         -5.43371       -2.78530       -1.57860
H         -6.07359       -2.38642        0.00146
H         -5.26517        0.04746       -1.57698
H         -3.51604        0.31817       -1.54015
H         -4.19072       -0.94656       -2.55885
C         -1.15070        4.10428       -0.47225
C         -0.07718        3.65669       -1.28421
C          0.25790        2.31278       -1.24652
C         -0.47894        1.42109       -0.51123
C         -1.59197        1.83065        0.17642
C         -1.97310        3.16143        0.19490
O         -1.37922        5.49520       -0.29737
C          0.73331        4.60565       -2.18158
H          1.11316        1.94365       -1.78597
H         -2.15700        1.09721        0.72293
C         -3.23182        3.56800        0.97756
C          4.42869       -0.85316        0.44887
C          3.74179        0.29407        0.92102
C          2.39653        0.42262        0.61862
C          1.75569       -0.49662       -0.16917
C          2.43782       -1.55659       -0.70721
C          3.78764       -1.73930       -0.45470
O          5.74157       -1.13632        0.91080
C          4.41279        1.36689        1.79243
H          1.81731        1.23658        1.01968
H          1.89451       -2.24967       -1.32576
C          4.52465       -2.90268       -1.13694
C         -0.13869        5.76739       -2.69204
C          1.93474        5.15134       -1.39562
C          1.25869        3.85784       -3.42823
C         -4.26732        2.42066        0.99000
C         -2.84208        3.88777        2.42872
C         -3.91960        4.78376        0.33050
C         -0.65006        6.07061        0.77960
H          0.41762        6.40137       -3.38203
H         -1.01682        5.38757       -3.21317
H         -0.48248        6.39525       -1.87394
H          1.61465        5.68765       -0.50559
H          2.58566        4.33839       -1.07672
H          2.52401        5.83414       -2.00717
H          2.01282        3.11709       -3.16667
H          0.44541        3.35131       -3.94738
H          1.72229        4.55197       -4.12886
H         -5.20221        2.74900        1.44351
H         -4.48801        2.08799       -0.02337
H         -3.91736        1.56575        1.56652
H         -3.71656        4.16719        3.01570
H         -2.37983        3.02182        2.90219
H         -2.13039        4.70851        2.47415
H         -4.84577        5.03166        0.84841
H         -3.28144        5.66334        0.35992
H         -4.15844        4.57902       -0.71259
H         -0.00043        6.85996        0.40188
H         -1.34323        6.51390        1.49433
H         -0.04765        5.31139        1.28012
C          5.78029       -1.93959        2.08382
C          5.90536        1.51507        1.44610
C          3.75908        2.74745        1.55589
C          4.24448        0.99106        3.27246
C          6.00252       -2.55224       -1.38889
C          4.42054       -4.15756       -0.25711
C          3.89549       -3.21230       -2.51477
H          6.45619        0.60326        1.66205
H          6.03296        1.73928        0.38759
H          6.36286        2.31986        2.02100
H          4.30904        3.53077        2.07696
H          3.75280        2.99253        0.49464
H          2.73420        2.77936        1.92247
H          3.18876        0.91120        3.53086
H          4.71052        0.03324        3.49113
H          4.69585        1.74176        3.92054
H          6.53864       -2.39787       -0.45586
H          6.50800       -3.35132       -1.93060
H          6.08533       -1.63866       -1.97668
H          4.87388       -3.99454        0.71764
H          3.37768       -4.42968       -0.09602
H          4.92248       -5.00458       -0.72410
H          2.89265       -3.62540       -2.41745
H          4.49195       -3.94630       -3.05615
H          3.83788       -2.31177       -3.12571
H          6.34700       -2.84919        1.88552
H          6.28021       -1.39510        2.88467
H          4.76924       -2.20138        2.39853
