87
-129.18545414
P         -1.70637       -0.37351       -0.12814
P          1.57598        0.34473       -0.19690
C         -1.45294        0.96389       -1.31937
C          1.32055       -0.64822       -1.67118
C         -0.49671        0.92568       -2.33265
C         -0.28846        2.07926       -3.11324
C         -1.05692        3.20645       -2.87995
C         -2.00841        3.22269       -1.88417
C         -2.19544        2.10053       -1.10142
C          2.11421       -1.74763       -1.88851
C          1.93042       -2.52218       -3.01677
C          0.94728       -2.18619       -3.92352
C          0.13408       -1.08316       -3.72167
C          0.32603       -0.28997       -2.57274
Cl         1.26805        1.14544        2.93465
Cl        -1.33920       -0.76244        3.07155
H         -2.59358        4.11019       -1.70705
H         -2.92254        2.11436       -0.30611
H          2.88403       -1.99850       -1.17787
H          2.55086       -3.38701       -3.18561
H         -0.89472        4.08321       -3.48380
H          0.79800       -2.78969       -4.80274
C         -0.88631       -4.59488       -1.59406
C         -0.36172       -4.17577       -0.37907
C         -0.64723       -2.88719        0.05421
C         -1.41871       -2.04513       -0.71349
C         -1.95903       -2.47773       -1.90119
C         -1.69048       -3.75933       -2.34468
H         -0.66115       -5.58670       -1.94731
C          0.52415       -5.06323        0.42208
H         -0.28812       -2.55110        1.01182
H         -2.56902       -1.80532       -2.48312
H         -2.09722       -4.10028       -3.28258
C         -5.80801       -0.02208        1.81550
C         -5.58560       -0.97153        0.83779
C         -4.33841       -1.07831        0.25127
C         -3.32385       -0.23843        0.64772
C         -3.54427        0.70958        1.62022
C         -4.79306        0.83568        2.21642
H         -6.77578        0.05662        2.28083
H         -6.38163       -1.63176        0.53466
H         -4.14901       -1.81817       -0.50928
H         -2.73548        1.34736        1.93698
C         -5.01361        1.83602        3.29589
C          4.93038       -1.43994        2.31798
C          5.06138       -0.16222        1.81050
C          4.04924        0.38243        1.04301
C          2.91825       -0.35523        0.78416
C          2.78404       -1.62654        1.29275
C          3.78674       -2.18757        2.07317
H          5.71856       -1.86648        2.91471
H          5.95002        0.41204        2.01540
H          4.13303        1.38260        0.65071
H          1.89324       -2.19303        1.08190
C          3.63904       -3.56980        2.60463
C          2.40709        4.65895       -1.34098
C          3.15108        3.64123       -1.90543
C          2.90633        2.32814       -1.54816
C          1.92863        2.04890       -0.62257
C          1.19231        3.05997       -0.05070
C          1.41192        4.38317       -0.41328
H          2.59431        5.68201       -1.61942
H          3.91708        3.86859       -2.62855
H          3.46398        1.51843       -1.99231
H          0.43532        2.82274        0.67768
C          0.61528        5.47669        0.20598
Pd        -0.06258        0.11682        1.44925
C          0.74698        2.11889       -4.18347
C         -0.92297       -0.76293       -4.72059
H          1.30095        3.05818       -4.15262
H          1.46963        1.30998       -4.07147
H          0.29064        2.03086       -5.17010
H         -1.63624       -0.03658       -4.32945
H         -0.48550       -0.34966       -5.63021
H         -1.48266       -1.65828       -4.99499
H          0.43207       -4.85083        1.48822
H          0.27186       -6.11361        0.27033
H          1.56857       -4.92259        0.13974
H         -4.45340        2.75179        3.10144
H         -6.06800        2.10320        3.37905
H         -4.68819        1.44130        4.25937
H          4.30952       -3.74414        3.44723
H          2.61967       -3.74697        2.95087
H          3.86677       -4.30786        1.83421
H          1.08865        5.82863        1.12358
H          0.51768        6.32591       -0.47186
H         -0.39057        5.13526        0.45545
