105
-153.07049781
Cl        -1.09609        3.27019       -2.11482
Pd        -0.06360        1.80810       -0.75851
P          0.95267        0.52777        0.97031
N         -0.02113       -0.78543        1.62247
C         -0.15865       -2.16298        1.40920
C          0.17922       -2.82760        0.20061
C         -0.16605       -4.18523        0.03202
C          0.01653       -4.83224       -1.32104
C         -0.88210       -6.05916       -1.53084
C         -0.73953       -7.02764       -0.35287
C         -1.13924       -6.35303        0.97056
C         -0.75115       -4.89700        1.08223
C         -1.04006       -4.23514        2.26888
C         -0.77131       -2.90000        2.42138
H         -1.03390       -2.39575        3.33536
H         -1.50810       -4.78308        3.06931
H         -2.22508       -6.42872        1.10487
H         -1.33235       -7.93733       -0.52345
H         -1.92707       -5.73423       -1.61046
H         -0.17131       -4.08761       -2.10482
C          0.68307       -2.06300       -0.96443
C         -0.21680       -1.18461       -1.61375
C          0.21392       -0.49105       -2.74386
C          1.48154       -0.67376       -3.23388
C          2.37194       -1.55530       -2.62945
C          3.73032       -1.74246       -3.26830
C          4.68175       -2.71459       -2.54159
C          3.91457       -3.82385       -1.81299
C          2.92989       -3.20151       -0.81549
C          1.97290       -2.25332       -1.48711
H          2.38751       -3.97238       -0.25724
H          4.60058       -4.52129       -1.31191
H          5.28309       -2.16020       -1.81102
H          4.20365       -0.75752       -3.36786
H          1.79969       -0.13272       -4.10888
H         -0.46436        0.19277       -3.22237
N         -1.50785       -1.02182       -1.10337
P         -2.07017        0.60426       -0.72726
C         -2.57959        0.73931        0.98409
C         -2.19634        1.84253        1.71039
C         -2.43500        1.88379        3.07092
C         -3.05286        0.81958        3.71205
C         -3.46749       -0.26766        2.95498
C         -3.23133       -0.30808        1.59257
H         -3.52482       -1.16616        1.00903
H         -3.96547       -1.08916        3.44124
C         -3.30105        0.86309        5.17943
H         -2.12391        2.73841        3.64729
H         -1.69366        2.66055        1.21929
C         -3.32647        1.19134       -1.85222
C         -3.48347        0.55454       -3.05926
C         -4.43431        1.00844       -3.95600
C         -5.23435        2.09964       -3.64288
C         -5.05253        2.73329       -2.42044
C         -4.10138        2.27774       -1.52529
H         -3.95245        2.76980       -0.57720
H         -5.65661        3.59034       -2.17623
C         -6.23738        2.60983       -4.61817
H         -4.55776        0.51881       -4.90682
H         -2.86329       -0.29678       -3.29027
H         -1.74728       -1.59678       -0.30815
H         -0.79261       -0.31817        2.08413
C          1.02638        1.73680        2.30141
C          1.32136        3.05718        2.06040
C          1.34640        3.96240        3.10358
C          1.09048        3.54869        4.40374
C          0.80475        2.20984        4.63280
C          0.77909        1.30776        3.58441
H          0.55779        0.26797        3.76222
H          0.59623        1.87886        5.63583
C          1.08253        4.52830        5.52516
H          1.56482        4.99932        2.91326
H          1.53750        3.37317        1.05444
C          2.63857       -0.06102        0.80619
C          3.51756        0.40194       -0.14301
C          4.82772       -0.03608       -0.14553
C          5.27493       -0.93325        0.81542
C          4.38223       -1.37299        1.78297
C          3.06744       -0.93900        1.77444
H          2.36766       -1.28024        2.52140
H          4.72049       -2.06180        2.53804
C          6.68527       -1.41083        0.82356
H          5.51538        0.32800       -0.88959
H          3.18481        1.13039       -0.86080
Cl         1.91434        2.82579       -1.04844
H         -0.70316       -6.89597        1.81878
H         -0.65312       -6.55928       -2.48255
H          0.30272       -7.36533       -0.28987
H          1.06360       -5.12959       -1.44129
H          3.35979       -4.42358       -2.54512
H          3.48987       -2.64664       -0.05841
H          3.57250       -2.09143       -4.29598
H          5.40842       -3.14503       -3.24469
H         -4.26605        1.32325        5.39590
H         -3.30158       -0.13994        5.60842
H         -2.52972        1.44064        5.69114
H         -7.09333        3.05276       -4.10707
H         -5.79751        3.37299       -5.26157
H         -6.61167        1.80721       -5.25515
H          0.08391        4.94293        5.66955
H          1.39066        4.05861        6.46032
H          1.76582        5.35600        5.33011
H          6.72632       -2.50088        0.84505
H          7.22461       -1.07568       -0.06341
H          7.21648       -1.03588        1.69943
