72
-98.10010817
Fe        -0.02589        2.82443       -0.02249
P          1.85324       -0.03891       -0.01087
P         -1.83601       -0.09725       -0.08582
C          1.41521        1.61711        0.65192
C          0.46371        1.89241        1.71488
C          0.43674        3.32670        1.94024
C          1.38057        3.93883        1.02383
C          2.00633        2.88328        0.24619
C         -1.41907        1.55593       -0.74929
C         -2.01675        2.82203       -0.35706
C         -1.37598        3.88111       -1.11967
C         -0.38525        3.26950       -1.98756
C         -0.41747        1.83444       -1.76406
C          3.19821       -0.71034        1.08015
C          4.40197        0.12219        0.60870
C          2.92516        0.19565       -1.51484
C          4.33420        0.43001       -0.91614
C         -3.26636       -0.77326       -1.05233
C         -4.47091       -0.32333       -0.20926
C         -2.65700        0.03622        1.57365
C         -4.13228       -0.32351        1.30377
H         -0.10111        1.14803        2.27494
H         -0.17446        3.84924        2.67933
H          1.60782        5.00492        0.95558
H          2.77452        3.01563       -0.51810
H         -2.82129        2.94741        0.37105
H          0.21046        1.09333       -2.25917
Cl         1.62065       -3.10138        0.02622
Cl        -1.51935       -3.15447       -0.05086
Pd         0.02511       -1.50908       -0.11433
H          3.34470       -1.76322        0.81401
C          2.89711       -0.58187        2.57070
H          2.56184        1.08829       -2.03773
C          2.89824       -1.01010       -2.45440
H          5.34534       -0.38212        0.87003
H          4.40908        1.06410        1.17675
H          4.67119        1.45830       -1.11413
H          5.05245       -0.20962       -1.44778
H         -1.61060        4.94671       -1.06220
H          0.26048        3.79376       -2.69595
H          3.83657       -0.66413        3.13483
H          3.74983       -0.93954       -3.14563
H         -3.17858       -1.86546       -1.03521
C         -3.30972       -0.27706       -2.49322
H         -2.55856        1.08288        1.88480
C         -1.99653       -0.88638        2.59089
H         -5.34473       -0.95939       -0.41944
H         -4.76087        0.68961       -0.52249
H         -4.80077        0.35480        1.85460
H         -4.33102       -1.32325        1.71299
H         -4.28057       -0.54228       -2.93451
H         -0.91477       -0.71419        2.58813
C          1.90688       -1.62121        3.06968
H          1.65704       -1.48232        4.12392
H          0.97887       -1.58439        2.50173
H          2.30401       -2.63147        2.95411
C          1.61555       -1.15247       -3.25530
H          1.42023       -0.26129       -3.85464
H          1.65266       -2.00455       -3.93795
H          0.75761       -1.30372       -2.60333
C         -2.18311       -0.83227       -3.34636
H         -2.20568       -1.92338       -3.37142
H         -2.23184       -0.47547       -4.37764
H         -1.21397       -0.54099       -2.94484
C         -2.54420       -0.71332        3.99953
H         -2.05376       -1.37863        4.71378
H         -2.40299        0.30985        4.35305
H         -3.61465       -0.92209        4.03918
H          2.52904        0.43219        2.77216
H          3.08203       -1.91700       -1.86356
H         -3.28343        0.82048       -2.49134
H         -2.11826       -1.92532        2.25615
