72
-108.40168823
Cl         1.75336       -0.90292        2.57933
Cl        -0.93369        0.73617        2.84353
P         -1.12742        1.15835       -0.29259
P          2.26461       -0.14044       -0.34971
C          3.25210        1.46018       -0.08340
C          3.59976        1.58829        1.40082
C          4.52347        1.43645       -0.92447
C          3.35335       -1.69178       -0.14381
C          4.17108       -1.94128       -1.41826
C          1.45668       -0.40101       -2.03836
C          1.53619        0.77871       -2.98467
C         -1.13008       -0.17790       -1.52301
C          0.03516       -0.93233       -1.98112
C         -0.46706       -2.02571       -2.81619
C         -1.91091       -1.92037       -2.90560
C         -2.31678       -0.79138       -2.09010
C          2.39395        2.65852       -0.46977
H          2.70428        1.56702        2.02194
H          4.25960        0.79432        1.74008
H          5.05054        2.38892       -0.84873
H          4.30424        1.26441       -1.97717
C          4.31028       -1.58483        1.04009
H          4.66084       -1.03533       -1.77017
H          3.55935       -2.33342       -2.22980
H          2.05836       -1.20581       -2.47061
H          1.18545        0.50405       -3.98161
H          2.55091        1.16092       -3.08936
H          0.89001        1.58409       -2.64366
H          0.15557       -2.72370       -3.37935
H         -2.57267       -2.57155       -3.48108
Pd         0.48427        0.28397        1.15762
H         -3.33930       -0.45298       -1.90839
C          2.39103       -2.85042        0.07681
H          4.94806       -2.68473       -1.23256
H          3.78695       -1.32301        1.95721
H          4.80744       -2.54010        1.21458
H          5.09261       -0.85019        0.85904
H          1.88788       -2.75447        1.03767
H          1.63498       -2.88732       -0.70878
H          2.92216       -3.80431        0.07823
H          4.11014        2.53315        1.59461
H          5.21115        0.66196       -0.58937
H          2.17863        2.68393       -1.53480
H          1.45254        2.64878        0.07666
H          2.90320        3.59255       -0.22654
C         -2.79164        1.23459        0.41539
C         -3.21043        2.16178        1.33691
C         -4.54192        1.87161        1.63462
C         -4.88337        0.77804        0.87801
O         -3.81829        0.37691        0.12451
H         -2.61142        2.94757        1.76677
H         -5.17667        2.40017        2.32695
H         -5.85065        0.29102        0.86999
C         -0.74495        2.77096       -0.99760
C         -0.68447        3.92374       -0.25397
C         -0.36428        4.96008       -1.13208
C         -0.24335        4.39489       -2.37784
O         -0.47106        3.04998       -2.30881
H         -0.83754        4.00260        0.81025
H         -0.23724        6.00051       -0.88124
H         -0.00160        4.92376       -3.29143
Fe        -1.31426       -2.11056       -0.95580
C         -2.99982       -2.77239        0.03190
C         -2.15585       -1.97895        0.90347
C         -0.86433       -2.62555        0.99427
C         -0.89048       -3.80506        0.15091
C         -2.20880       -3.89023       -0.45132
H         -4.04015       -2.55646       -0.22126
H         -2.44919       -1.06974        1.43167
H         -0.03984       -2.28760        1.62399
H         -0.08071       -4.52709        0.02567
H         -2.55836       -4.68069       -1.11935
