171
-217.84849064
P         -1.61156        0.44541       -0.34156
P          1.59511       -0.28530       -0.24201
C         -0.84212        1.50856       -1.57284
C          0.96028       -1.15205       -1.67942
C          0.01483        0.99489       -2.54084
C          0.67796        1.89072       -3.40165
C          0.43725        3.24934       -3.28321
C         -0.43249        3.73717       -2.33154
C         -1.06396        2.86071       -1.47163
C          1.18565       -2.50304       -1.77544
C          0.69096       -3.21287       -2.85225
C         -0.03827       -2.55999       -3.82375
C         -0.27979       -1.19833       -3.74263
C          0.23914       -0.47189       -2.65351
Cl         1.51003        0.51090        2.93109
Cl        -1.61419       -0.27470        2.93520
C         -1.05919       -0.52399       -4.81713
C          1.64050        1.41223       -4.43166
H         -0.61343        4.79668       -2.25252
H         -1.73298        3.23506       -0.71402
H          1.75211       -3.00259       -1.00563
H          0.87564       -4.27143       -2.93398
H          0.94657        3.92880       -3.94575
H         -0.43023       -3.11068       -4.66216
C         -3.39844       -3.44469       -1.80248
C         -2.52684       -3.46842       -0.72054
C         -1.97151       -2.26395       -0.31083
C         -2.27281       -1.09689       -0.96787
C         -3.13850       -1.08831       -2.03397
C         -3.72670       -2.27037       -2.46927
H         -3.85318       -4.36058       -2.12974
H         -1.31591       -2.23049        0.54238
H         -3.36099       -0.14861       -2.51018
C         -4.85452        2.60798        1.97715
C         -3.53318        2.99244        2.16750
C         -2.55320        2.33305        1.43655
C         -2.89231        1.33116        0.56093
C         -4.20368        0.96318        0.38816
C         -5.21662        1.59963        1.09329
H         -5.62347        3.09859        2.54516
H         -1.51327        2.58014        1.56324
H         -4.42957        0.16190       -0.29215
C          4.17694       -3.08967        2.22621
C          2.79713       -3.15430        2.37066
C          2.02325       -2.30876        1.58620
C          2.61457       -1.40533        0.73707
C          3.98172       -1.33766        0.62976
C          4.79373       -2.18819        1.36874
H          4.79066       -3.75875        2.80059
H          0.95009       -2.33382        1.65172
H          4.41301       -0.60836       -0.03123
C          3.97225        3.41147       -1.31099
C          2.93196        3.52121       -0.39718
C          2.22216        2.36990       -0.08270
C          2.52685        1.17741       -0.68972
C          3.53875        1.09135       -1.61470
C          4.29298        2.21378       -1.93804
H          4.56324        4.28241       -1.52594
H          1.42931        2.39250        0.64418
H          3.73376        0.14012       -2.07980
Pd        -0.05794        0.15684        1.36258
C         -0.68110       -5.01587       -0.02483
C         -2.19518       -4.75141        0.05390
C         -2.93196       -5.97568       -0.52228
C         -2.62081       -4.57420        1.52378
H         -0.40747       -5.89784        0.55381
H         -0.37496       -5.18288       -1.05666
H         -0.11087       -4.17132        0.35755
H         -2.68337       -6.87560        0.04021
H         -4.01254       -5.84319       -0.47180
H         -2.65209       -6.14861       -1.56133
H         -3.69363       -4.39593        1.59357
H         -2.38708       -5.46349        2.10880
H         -2.11553       -3.72712        1.98523
C         -6.10482       -2.80080       -3.04927
C         -4.75716       -2.30571       -3.60703
C         -4.27263       -3.26369       -4.71115
C         -4.97331       -0.91017       -4.22434
H         -6.01895       -3.80738       -2.64163
H         -6.45499       -2.14634       -2.25149
H         -6.86641       -2.82015       -3.82863
H         -4.17435       -4.28224       -4.33778
H         -4.97328       -3.28234       -5.54575
H         -3.30095       -2.95489       -5.09382
H         -5.34989       -0.20690       -3.48189
H         -4.04682       -0.51256       -4.63595
H         -5.70149       -0.95429       -5.03411
C         -3.59905        3.58983        4.59682
C         -3.19033        4.07909        3.19580
C         -3.95130        5.37231        2.85008
C         -1.68137        4.39216        3.20851
H         -3.08084        2.66368        4.84504
H         -3.35206        4.33048        5.35716
H         -4.67007        3.39815        4.65131
H         -3.69381        5.71326        1.84742
H         -5.02943        5.22130        2.88596
H         -3.70410        6.16915        3.55136
H         -1.09896        3.51225        3.48134
H         -1.34900        4.73974        2.23097
H         -1.45362        5.17423        3.93257
C         -6.87207        0.08467       -0.10748
C         -6.69152        1.20267        0.93899
C         -7.50531        2.42881        0.48621
C         -7.22256        0.69515        2.29189
H         -7.92385       -0.18080       -0.21313
H         -6.51213        0.40237       -1.08586
H         -6.33303       -0.81674        0.18375
H         -7.12478        2.81494       -0.45926
H         -8.55504        2.17058        0.34748
H         -7.45450        3.23191        1.22044
H         -6.64157       -0.16040        2.63578
H         -7.16188        1.46903        3.05619
H         -8.26459        0.38611        2.21136
C          0.66792       -3.85591        3.57179
C          2.17097       -4.13465        3.37289
C          2.86281       -3.98942        4.74256
C          2.34895       -5.56938        2.84866
H          0.11234       -4.02651        2.65219
H          0.24801       -4.51378        4.33243
H          0.49975       -2.82727        3.89080
H          2.39579       -4.63644        5.48490
H          3.91709       -4.25713        4.69043
H          2.79347       -2.96200        5.09950
H          1.87357       -5.68545        1.87497
H          3.40420       -5.81663        2.73612
H          1.90407       -6.29324        3.53122
C          6.80179       -1.06159        0.28539
C          6.32523       -2.14830        1.26919
C          6.83785       -3.51329        0.77524
C          6.91703       -1.84022        2.65696
H          7.88998       -1.04107        0.22771
H          6.42231       -1.24835       -0.71891
H          6.46952       -0.07373        0.60391
H          6.56767       -4.31121        1.46597
H          6.41134       -3.75476       -0.19823
H          7.92330       -3.51025        0.67717
H          6.65444       -2.61114        3.38036
H          8.00441       -1.78104        2.61311
H          6.54154       -0.88818        3.03162
C          2.44012        5.94828       -0.82446
C          2.62238        4.87167        0.26233
C          3.78989        5.25767        1.18675
C          1.32868        4.80737        1.09798
H          1.64778        5.66560       -1.51661
H          2.17428        6.90786       -0.38135
H          3.35261        6.09234       -1.40132
H          3.93680        4.50023        1.95651
H          4.72012        5.35004        0.62699
H          3.59884        6.21005        1.68093
H          1.09319        5.78297        1.52292
H          0.48361        4.49976        0.48256
H          1.42793        4.10526        1.92547
C          5.39796        3.26104       -3.94908
C          5.49653        2.14568       -2.88992
C          5.56676        0.78964       -3.61946
C          6.78635        2.33103       -2.07075
H          4.47251        3.17946       -4.51711
H          5.42444        4.24959       -3.49293
H          6.22847        3.20197       -4.65242
H          6.40250        0.76979       -4.31880
H          5.71074       -0.02982       -2.91601
H          4.65567        0.60103       -4.18639
H          6.87600        1.55429       -1.31211
H          7.66701        2.28140       -2.71086
H          6.79344        3.29519       -1.56321
H         -0.41410       -0.25087       -5.65305
H          2.55950        1.99701       -4.39871
H         -1.53907        0.38396       -4.44907
H         -1.84048       -1.17825       -5.20388
H          1.22006        1.50795       -5.43369
H          1.91088        0.36730       -4.27476
