105
-153.07156235
Cl        -0.50695        2.02029       -2.95599
Pd         0.38131        1.13437       -1.08208
P          1.47358        0.58016        0.91066
N          1.33553       -1.01047        1.64273
C          0.28212       -1.92867        1.55564
C         -0.17701       -2.45134        0.31765
C         -1.19214       -3.42906        0.31368
C         -1.64341       -4.00549       -1.00743
C         -2.47601       -5.29164       -0.89154
C         -3.51947       -5.17015        0.22254
C         -2.84021       -4.90887        1.57519
C         -1.74322       -3.87506        1.51773
C         -1.25645       -3.37116        2.71690
C         -0.26181       -2.42926        2.73859
H          0.10285       -2.05064        3.67746
H         -1.67563       -3.73087        3.64137
H         -3.58346       -4.59404        2.31893
H         -4.20244       -4.34330       -0.00910
H         -2.95651       -5.53406       -1.84996
H         -2.22378       -3.24075       -1.53620
C          0.52544       -2.13518       -0.94930
C         -0.19163       -1.54186       -2.02694
C          0.45172       -1.40354       -3.26100
C          1.75301       -1.79993       -3.42584
C          2.46644       -2.38527       -2.38718
C          3.87871       -2.83730       -2.65452
C          4.32563       -3.97961       -1.73190
C          4.03745       -3.63244       -0.26854
C          2.54474       -3.33429       -0.03852
C          1.85166       -2.57123       -1.14669
H          2.00287       -4.27525        0.11448
H          4.63593       -2.75979        0.02046
H          5.39106       -4.20795       -1.87798
H          4.55127       -1.97923       -2.54000
H          2.23780       -1.66075       -4.37726
H         -0.07875       -0.93797       -4.07302
N         -1.48516       -1.02051       -1.87274
P         -1.71160        0.16833       -0.58736
C         -2.56696       -0.45011        0.85248
C         -3.63239       -1.30382        0.70194
C         -4.33762       -1.71865        1.81759
C         -3.98645       -1.26709        3.08325
C         -2.91585       -0.39138        3.20820
C         -2.21474        0.02355        2.09095
H         -1.38975        0.70943        2.17566
H         -2.63097       -0.03994        4.18507
C         -4.71485       -1.74959        4.28861
H         -5.16462       -2.39964        1.71141
H         -3.90530       -1.64013       -0.28567
C         -2.68871        1.57668       -1.12313
C         -2.48482        2.78909       -0.50745
C         -3.23374        3.88703       -0.88930
C         -4.19150        3.77495       -1.88818
C         -4.39734        2.53591       -2.48034
C         -3.64691        1.43871       -2.09803
H         -3.81258        0.47493       -2.55105
H         -5.15004        2.43575       -3.24359
C         -5.01293        4.95125       -2.28683
H         -3.07648        4.83954       -0.41278
H         -1.73752        2.87359        0.26615
H         -1.86500       -0.58000       -2.70065
H          1.78701       -0.90447        2.54212
C          0.80977        1.85366        1.98777
C          0.62148        3.12141        1.48831
C          0.06680        4.10205        2.28942
C         -0.29979        3.82010        3.59827
C         -0.07382        2.54335        4.09454
C          0.48016        1.56400        3.29077
H          0.63471        0.56792        3.67058
H         -0.33988        2.31934        5.11348
C         -0.88305        4.87940        4.46710
H         -0.08412        5.09498        1.90141
H          0.91647        3.34090        0.47420
C          3.23680        0.85207        0.72986
C          3.87245        1.86417        1.40930
C          5.23576        2.04142        1.25911
C          5.96912        1.20975        0.42323
C          5.31000        0.18812       -0.24652
C          3.94669        0.01348       -0.09273
H          3.42052       -0.75797       -0.62980
H          5.87011       -0.46579       -0.89269
C          7.44043        1.38571        0.27605
H          5.73944        2.83020        1.79133
H          3.30172        2.51174        2.05463
Cl         2.38712        1.87253       -1.80152
H         -2.41715       -5.84356        1.96222
H         -1.81095       -6.13685       -0.67414
H         -4.14994       -6.06952        0.26706
H         -0.76026       -4.18691       -1.63295
H          4.37475       -4.44350        0.39223
H          2.42768       -2.77850        0.89772
H          3.96735       -3.14018       -3.70572
H          3.78681       -4.89687       -2.00107
H         -5.75319       -1.98688        4.05283
H         -4.24637       -2.64991        4.68866
H         -4.71834       -0.99380        5.07526
H         -4.46410        5.88253       -2.14012
H         -5.29385        4.89597       -3.33947
H         -5.92834        5.00294       -1.69583
H         -1.45056        5.60221        3.87920
H         -1.56007        4.45206        5.20814
H         -0.09871        5.41954        4.99904
H          7.97822        0.78027        1.00693
H          7.77415        1.08808       -0.71900
H          7.72930        2.42728        0.42333
