72
-108.40235118
Cl         1.73084       -0.89204        2.66392
Cl        -0.92889        0.92533        2.77243
P         -1.11466        1.14987       -0.27319
P          2.24600       -0.12650       -0.37470
C          3.24874        1.46266       -0.10718
C          3.60708        1.58803        1.37517
C          4.51342        1.43129       -0.95777
C          3.32007       -1.68415       -0.15508
C          4.13663       -1.95271       -1.42609
C          1.44410       -0.38407       -2.06303
C          1.50815        0.80260       -3.00195
C         -1.13166       -0.17554       -1.51690
C          0.02738       -0.92534       -1.99711
C         -0.47649       -2.00264       -2.85074
C         -1.92319       -1.91396       -2.89065
C         -2.32441       -0.78358       -2.07479
C          2.39452        2.66546       -0.48335
H          4.10950        2.53727        1.56829
H          2.71685        1.55594        2.00329
H          5.04726        2.38028       -0.88569
H          4.28503        1.26053       -2.00878
C          4.27431       -1.57429        1.03027
H          4.63228       -1.05370       -1.78763
H          3.52176       -2.34941       -2.23314
H          2.05106       -1.18084       -2.50266
H          2.51933        1.19282       -3.11159
H          0.85876        1.60119       -2.65097
H          1.15225        0.53187       -3.99815
H          0.13982       -2.69159       -3.43149
H         -2.59165       -2.56154       -3.46260
Pd         0.50090        0.23883        1.17707
H         -3.34576       -0.45445       -1.87229
C          2.34793       -2.83150        0.07607
H          4.90853       -2.69935       -1.23219
H          3.75084       -1.28993        1.94061
H          4.75553       -2.53452        1.22152
H          5.06920       -0.85550        0.84008
H          1.84656       -2.72067        1.03625
H          1.59222       -2.86881       -0.70984
H          2.87039       -3.79016        0.08706
H          4.27880        0.80100        1.70672
H          5.19835        0.65198       -0.62794
H          2.16392        2.69172       -1.54515
H          1.46181        2.65824        0.07759
H          2.91186        3.59684       -0.24684
C         -2.79097        1.23580        0.41221
C         -3.25957        2.24263        1.21929
C         -4.58194        1.93294        1.53673
C         -4.86875        0.74776        0.90608
O         -3.77867        0.30961        0.21141
H         -2.70181        3.10030        1.55667
H         -5.24689        2.50973        2.15863
H         -5.81506        0.22254        0.94556
C         -0.73111        2.76811       -0.96697
C         -0.62631        3.90725       -0.20735
C         -0.32474        4.95377       -1.07992
C         -0.25909        4.40800       -2.33848
O         -0.50316        3.06528       -2.28294
H         -0.73435        3.96830        0.86367
H         -0.17211        5.98774       -0.81696
H         -0.04389        4.94867       -3.25180
Fe        -1.28705       -2.14151       -0.96340
C         -2.98383       -2.82714       -0.00923
C         -2.18464       -2.03514        0.90409
C         -0.87616       -2.64803        0.98250
C         -0.87124       -3.84580        0.16372
C         -2.17074       -3.93684       -0.47517
H         -4.02239       -2.62837       -0.28303
H         -2.49843       -1.12572        1.41954
H         -0.07327       -2.30776        1.63892
H         -0.04866       -4.55565        0.05547
H         -2.49735       -4.72971       -1.15184
