58
-89.86478261
P          1.56607        0.02732        0.77438
C          2.98534        1.12733        0.72554
C          4.24676        0.58301        0.64041
C          5.35363        1.41192        0.60087
C          5.18786        2.78197        0.64711
C          3.92054        3.32370        0.73264
C          2.81581        2.49218        0.77297
H          1.82161        2.90541        0.82613
H          4.35935       -0.48869        0.60013
C          1.99934       -1.58224        0.10596
C          2.25174       -2.65628        0.92906
C          2.58520       -3.87966        0.37613
C          2.66969       -4.01692       -0.99561
C          2.43000       -2.93302       -1.81663
C          2.09829       -1.71198       -1.26016
H          1.92452       -0.84743       -1.88064
H          2.18895       -2.53707        1.99837
C          0.96759       -0.06327        2.51153
C         -0.03160        1.04756        2.80693
C         -1.47404        0.69792        2.46971
P         -1.82339        0.20315        0.72199
C         -3.59867        0.41722        0.50012
C         -4.43005       -0.37658        1.25886
C         -5.80313       -0.23561        1.15639
C         -6.33556        0.70273        0.29476
C         -5.49964        1.49454       -0.46698
C         -4.12944        1.34709       -0.36353
H         -3.46941        1.93786       -0.97371
H         -4.00042       -1.10572        1.92808
C         -1.46876       -1.53056        0.38786
C         -1.41070       -1.91823       -0.93164
C         -1.12788       -3.23260       -1.25487
C         -0.91247       -4.15361       -0.24968
C         -0.98696       -3.76448        1.07299
C         -1.26987       -2.44932        1.39231
H         -1.35281       -2.14758        2.42272
H         -1.57811       -1.18200       -1.70263
Pd        -0.04293        0.96634       -0.60569
Cl         1.59691        1.45770       -2.06741
Cl        -1.61181        1.64494       -2.05530
H         -1.83029       -0.11529        3.10385
H         -2.13077        1.54839        2.67048
H          0.02875        1.32823        3.87019
H          0.26626        1.95118        2.25819
H          0.53211       -1.04464        2.69781
H          1.85962        0.01217        3.13891
H          6.34209        0.98842        0.53113
H          3.79075        4.39306        0.76307
H          2.77626       -4.72530        1.01618
H          2.50172       -3.03637       -2.88680
H         -6.45431       -0.85676        1.74918
H         -5.91367        2.22163       -1.14618
H         -1.06999       -3.53366       -2.28786
H         -0.82357       -4.48544        1.85714
H          6.04872        3.42966        0.61324
H          2.92621       -4.97119       -1.42598
H         -7.40455        0.81450        0.21397
H         -0.68534       -5.17758       -0.49775
