171
-217.84481942
P         -1.62241        0.42666       -0.42650
P          1.60218       -0.30723       -0.21268
C         -0.82747        1.47868       -1.65124
C          1.00830       -1.18370       -1.66261
C          0.07536        0.95428       -2.57015
C          0.76880        1.83902       -3.41931
C          0.50662        3.19664       -3.34399
C         -0.41568        3.69394       -2.44848
C         -1.07436        2.82935       -1.59713
C          1.24759       -2.53314       -1.75069
C          0.77973       -3.25198       -2.83318
C          0.06019       -2.61040       -3.81891
C         -0.19224       -1.25017       -3.74793
C          0.30326       -0.51393       -2.65526
Cl         1.40895        0.23636        2.96537
Cl        -1.82653       -0.31622        2.73173
C         -0.95272       -0.57984       -4.83791
C          1.79305        1.35307       -4.38465
H         -0.61482        4.75224       -2.40455
H         -1.78674        3.21321       -0.88566
H          1.80650       -3.02577       -0.97142
H          0.97814       -4.30861       -2.90785
H          1.04014        3.86757       -3.99613
H         -0.31224       -3.16833       -4.66142
C         -3.59583       -3.38578       -1.85763
C         -2.65951       -3.44982       -0.83268
C         -2.04168       -2.26890       -0.44434
C         -2.34762       -1.08278       -1.06385
C         -3.27503       -1.03526       -2.07598
C         -3.92966       -2.19096       -2.48622
H         -4.08943       -4.28801       -2.16271
H         -1.33181       -2.26959        0.36517
H         -3.50747       -0.08551       -2.52816
C         -4.70321        2.65856        2.05226
C         -3.37528        3.06623        2.10596
C         -2.45609        2.39329        1.31242
C         -2.85143        1.35092        0.51140
C         -4.16537        0.95589        0.47858
C         -5.12045        1.60005        1.25346
H         -5.42815        3.17209        2.65357
H         -1.41568        2.67091        1.33527
H         -4.44649        0.12710       -0.14711
C          4.21615       -3.06075        2.28039
C          2.83963       -3.25186        2.29491
C          2.05908       -2.41734        1.50444
C          2.63480       -1.40802        0.77278
C          3.99335       -1.21533        0.79788
C          4.81600       -2.04428        1.54684
H          4.83216       -3.72363        2.85760
H          0.99019       -2.53515        1.47083
H          4.41977       -0.40497        0.23415
C          3.97327        3.40910       -1.21007
C          2.88566        3.51986       -0.35285
C          2.16770        2.36666       -0.06367
C          2.51573        1.17096       -0.63990
C          3.57532        1.08281       -1.50910
C          4.33592        2.20758       -1.80637
H          4.56798        4.28273       -1.40252
H          1.33558        2.38914        0.61815
H          3.80680        0.12565       -1.94489
Pd        -0.11545        0.06065        1.32703
C         -0.83253       -5.07200       -0.27205
C         -2.32605       -4.75047       -0.08842
C         -3.14792       -5.94169       -0.61683
C         -2.64295       -4.56706        1.40821
H         -0.55282       -5.96700        0.28334
H         -0.60559       -5.24395       -1.32344
H         -0.20604       -4.25152        0.07309
H         -2.89945       -6.85316       -0.07320
H         -4.21662       -5.76603       -0.49511
H         -2.94409       -6.12187       -1.67220
H         -2.40938       -5.47049        1.97121
H         -2.07092       -3.74675        1.83918
H         -3.69974       -4.34304        1.55181
C         -5.69176       -3.47379       -3.80767
C         -5.02588       -2.10605       -3.55994
C         -4.41413       -1.61713       -4.88311
C         -6.11151       -1.11645       -3.09720
H         -6.47466       -3.39128       -4.56152
H         -4.96707       -4.20467       -4.16601
H         -6.15095       -3.85720       -2.89662
H         -5.17406       -1.54493       -5.66105
H         -3.96179       -0.63306       -4.76760
H         -3.64580       -2.30859       -5.22749
H         -6.53093       -1.42549       -2.13990
H         -5.70564       -0.11259       -2.97984
H         -6.92493       -1.06245       -3.82054
C         -2.44871        5.38975        2.10659
C         -2.89495        4.21873        2.99909
C         -1.71045        3.73881        3.86165
C         -4.00857        4.71268        3.94254
H         -3.27976        5.75114        1.50119
H         -2.07937        6.22126        2.70653
H         -1.65349        5.08423        1.42869
H         -0.85777        3.45189        3.24831
H         -1.37857        4.52400        4.54054
H         -1.99639        2.87327        4.45885
H         -4.84956        5.11943        3.38145
H         -4.37251        3.90276        4.57453
H         -3.63895        5.50283        4.59603
C         -7.45354        1.84063        2.24612
C         -6.58022        1.12737        1.19589
C         -6.63955       -0.38892        1.46783
C         -7.14781        1.42562       -0.20255
H         -7.49230        2.91426        2.06341
H         -8.47693        1.46674        2.21597
H         -7.06921        1.67371        3.25225
H         -6.10308       -0.95369        0.70651
H         -6.19355       -0.62328        2.43416
H         -7.67008       -0.74341        1.47619
H         -7.12029        2.49523       -0.40973
H         -6.56812        0.92238       -0.97466
H         -8.18156        1.09056       -0.28559
C          0.69917       -4.17162        3.30990
C          2.21941       -4.36927        3.14642
C          2.84701       -4.36977        4.55464
C          2.47889       -5.72067        2.46052
H          0.18578       -4.27006        2.35588
H          0.27972       -4.91966        3.98241
H          0.47556       -3.18769        3.72221
H          2.36464       -5.10843        5.19461
H          3.90865       -4.60985        4.52270
H          2.73503       -3.39282        5.02455
H          2.04044       -5.73678        1.46279
H          3.54769       -5.90716        2.35853
H          2.04603       -6.54014        3.03400
C          6.86237       -1.92774        0.10327
C          6.33113       -1.79656        1.54273
C          7.07749       -2.80677        2.43473
C          6.61221       -0.37665        2.06985
H          7.94020       -1.77002        0.06864
H          6.65247       -2.91988       -0.29586
H          6.39780       -1.19691       -0.55718
H          6.74271       -2.73811        3.46961
H          6.92128       -3.82772        2.08685
H          8.15033       -2.61481        2.42191
H          6.14656        0.38003        1.43942
H          6.21965       -0.25693        3.07937
H          7.68285       -0.17478        2.09664
C          1.21253        4.80298        1.06385
C          2.53333        4.87546        0.27364
C          2.37338        5.93087       -0.83697
C          3.66077        5.29515        1.23268
H          0.39666        4.47315        0.42153
H          1.29321        4.11328        1.90360
H          0.94670        5.78030        1.46638
H          3.30285        6.07708       -1.38554
H          1.60858        5.62541       -1.55009
H          2.08000        6.89404       -0.41979
H          3.43605        6.25117        1.70523
H          3.79301        4.55184        2.01872
H          4.60875        5.39593        0.70515
C          5.69168        0.78121       -3.42094
C          5.59218        2.13299       -2.68632
C          6.83197        2.29822       -1.78938
C          5.56593        3.25501       -3.74266
H          4.81054        0.60269       -4.03633
H          6.56306        0.76025       -4.07529
H          5.79325       -0.04443       -2.71752
H          6.86805        1.51385       -1.03355
H          7.74916        2.24537       -2.37566
H          6.81688        3.25791       -1.27353
H          4.66963        3.18902       -4.35809
H          5.58329        4.24095       -3.28058
H          6.43102        3.18694       -4.40211
H         -1.59997       -1.28607       -5.35804
H          2.72012        1.91567       -4.27384
H         -0.27714       -0.14852       -5.57715
H         -1.57906        0.22204       -4.44424
H          1.45056        1.47506       -5.41316
H          2.02760        0.29962       -4.22710
