111
-148.55670012
P         -1.67410       -2.80211       -0.13375
P         -0.52348        0.12554       -0.53114
C         -1.56035       -2.08911       -1.80051
C         -1.12713       -0.78961       -1.96315
C         -0.51660       -4.22958        0.06285
C          0.56974       -3.90041        1.06496
C         -1.88046       -2.84924       -2.90711
H         -2.18373       -3.87529       -2.77744
C         -1.78845       -2.29666       -4.17300
H         -2.04229       -2.88889       -5.03697
C         -1.36632       -0.99038       -4.33122
H         -1.28940       -0.56254       -5.31723
C         -1.02438       -0.23720       -3.22240
H         -0.66006        0.77251       -3.32901
Pd        -1.42747       -0.99261        1.27515
Cl        -2.14757       -2.30183        2.94566
Cl        -1.08540        0.87728        2.47577
C         -1.44369       -5.38430        0.49352
C         -3.28954       -3.64016        0.20533
H          1.25096       -4.74254        1.20791
H          1.15951       -3.03858        0.74627
H          0.13568       -3.65519        2.03638
H         -1.38381       -5.49340        1.58509
H         -1.08194       -6.33916        0.08317
H         -3.53625       -3.39894        1.24776
C         -2.92326       -5.13038        0.08492
C         -4.39558       -3.17326       -0.71706
H         -0.09423       -4.41928       -0.93261
H         -3.08041       -5.45257       -0.95363
H         -3.60917       -5.74263        0.69030
H         -5.34421       -3.65968       -0.47882
H         -4.54104       -2.09299       -0.64463
H         -4.16399       -3.40261       -1.75752
C         -0.76508        4.66333       -0.75390
C          0.38278        3.98812       -1.24755
C          0.41650        2.60629       -1.15923
C         -0.65769        1.90053       -0.68337
C         -1.81677        2.53841       -0.32832
C         -1.91862        3.91899       -0.38853
O         -0.72897        6.06639       -0.54786
C          1.59550        4.69507       -1.87591
H          1.30124        2.06218       -1.44524
H         -2.64177        1.94298        0.02514
C         -3.27651        4.55475       -0.04610
C          3.71538       -1.25428        0.39115
C          3.08742       -0.29072        1.22148
C          1.79610        0.09838        0.91079
C          1.17032       -0.36402       -0.21548
C          1.80873       -1.21705       -1.07654
C          3.09744       -1.65413       -0.82169
O          4.93966       -1.85070        0.79447
C          3.75689        0.29969        2.47125
H          1.23599        0.73809        1.57069
H          1.27583       -1.55633       -1.94698
C          3.78462       -2.58235       -1.83505
C          1.29976        6.16147       -2.23542
C          2.78358        4.63282       -0.90110
C          1.98164        3.97856       -3.18894
C         -4.40151        3.78924       -0.77720
C         -3.51176        4.46619        1.47110
C         -3.36753        6.02301       -0.49699
C         -0.24998        6.41940        0.73936
H          2.13728        6.61213       -2.76743
H          0.41667        6.23093       -2.86960
H          1.11782        6.75756       -1.34447
H          2.55139        5.13643        0.03532
H          3.04199        3.60044       -0.66721
H          3.66449        5.10994       -1.32973
H          2.79330        4.50249       -3.69312
H          2.31634        2.95803       -3.01061
H          1.13187        3.94048       -3.86997
H         -4.48497        2.76126       -0.42874
H         -5.36702        4.26661       -0.61166
H         -4.21687        3.76789       -1.85087
H         -4.48134        4.88424        1.74030
H         -3.48643        3.43077        1.80930
H         -2.74717        5.01167        2.02055
H         -4.36790        6.42303       -0.33327
H         -2.66956        6.64894        0.05382
H         -3.13350        6.11468       -1.55703
H          0.76350        6.04627        0.87692
H         -0.25122        7.50510        0.83836
H         -0.88877        5.98692        1.50750
C          4.78014       -3.01727        1.59255
C          5.28435        0.38151        2.29994
C          3.25539        1.74032        2.72453
C          3.40267       -0.56518        3.69056
C          5.30752       -2.35802       -1.84719
C          3.46670       -4.04394       -1.48457
C          3.27544       -2.29902       -3.26688
H          5.75033        0.85825        3.16195
H          5.72581       -0.60587        2.19206
H          5.54009        0.95994        1.41280
H          3.81818        2.20977        3.53096
H          3.37362        2.35422        1.83205
H          2.20623        1.75794        3.01534
H          2.32311       -0.60180        3.83555
H          3.75363       -1.58672        3.56499
H          3.85198       -0.16347        4.59832
H          5.75431       -2.61689       -0.89051
H          5.78773       -2.96915       -2.61098
H          5.53977       -1.31359       -2.05261
H          3.94388       -4.72653       -2.18724
H          3.81280       -4.29468       -0.48483
H          2.39254       -4.22304       -1.51834
H          2.23284       -2.58907       -3.38936
H          3.85162       -2.86221       -4.00066
H          3.36847       -1.24064       -3.50904
H          5.25448       -2.86592        2.56201
H          3.72208       -3.23875        1.73695
H          5.26519       -3.86273        1.10497
