72
-108.40456871
Cl         1.77096       -0.82378        2.69372
Cl        -1.00063        0.74575        2.74518
P         -1.12759        1.13577       -0.25614
P          2.26545       -0.11753       -0.38499
C          3.26658        1.47484       -0.13906
C          3.63252        1.61580        1.33984
C          4.52602        1.43421       -0.99691
C          3.33343       -1.67500       -0.14676
C          4.13973       -1.96664       -1.41877
C          1.44981       -0.39049       -2.06428
C          1.50618        0.78706       -3.01503
C         -1.13375       -0.19431       -1.49819
C          0.03345       -0.93117       -1.98415
C         -0.48348       -2.02078       -2.81462
C         -1.92702       -1.90198       -2.89787
C         -2.32747       -0.75850       -2.10165
C          2.40822        2.67246       -0.52270
H          2.74544        1.58594        1.97261
H          4.30937        0.83472        1.67510
H          5.06094        2.38351       -0.93776
H          4.29103        1.25259       -2.04468
C          4.29566       -1.54967        1.03038
H          4.63942       -1.07572       -1.79487
H          3.51657       -2.36931       -2.21646
H          2.05399       -1.19113       -2.50090
H          1.14402        0.50622       -4.00616
H          2.51613        1.17741       -3.13521
H          0.85793        1.58800       -2.66736
H          0.13016       -2.71954       -3.38668
H         -2.59265       -2.54189       -3.48119
Pd         0.52415        0.23402        1.16495
H         -3.34648       -0.41142       -1.91912
C          2.35670       -2.81296        0.11032
H          4.90741       -2.71629       -1.21973
H          3.77856       -1.25083        1.93973
H          4.77618       -2.50800        1.23268
H          5.09060       -0.83532        0.82419
H          2.87405       -3.77413        0.13539
H          1.86159       -2.68191        1.07132
H          1.59606       -2.85983       -0.67033
H          4.13211        2.56886        1.52126
H          5.21218        0.65738       -0.66366
H          2.92471        3.60706       -0.29720
H          2.17295        2.68851       -1.58365
H          1.47781        2.66855        0.04219
C         -2.81119        1.22829        0.41118
C         -3.26901        2.20898        1.25572
C         -4.60155        1.91392        1.54335
C         -4.90467        0.76348        0.85827
O         -3.81490        0.33244        0.15867
H         -2.69666        3.03718        1.63936
H         -5.26227        2.47681        2.18226
H         -5.86211        0.25733        0.86329
C         -0.73417        2.75346       -0.94671
C         -0.64326        3.89396       -0.18730
C         -0.32874        4.93958       -1.05642
C         -0.24149        4.39192       -2.31280
O         -0.48441        3.04891       -2.25905
H         -0.77040        3.95735        0.88145
H         -0.18250        5.97429       -0.79271
H         -0.01194        4.93158       -3.22322
Fe        -1.30378       -2.10206       -0.94182
C         -2.99169       -2.76182        0.00126
C         -2.16981       -1.98926        0.91192
C         -0.87871       -2.63560        1.00297
C         -0.89505       -3.80673        0.14675
C         -2.20615       -3.88856       -0.47083
H         -4.02781       -2.54009       -0.26489
H         -2.46693       -1.08213        1.44139
H         -0.06936       -2.31692        1.66193
H         -0.08607       -4.53107        0.02958
H         -2.54808       -4.66968       -1.15356
