111
-148.55594573
P         -1.69667       -2.73741       -0.16449
P         -0.42498        0.11772       -0.61142
C         -1.58250       -2.05416       -1.84231
C         -1.08461       -0.78147       -2.02705
C         -0.63250       -4.23715        0.02270
C          0.50597       -3.96653        0.98369
C         -1.96590       -2.80712       -2.93347
H         -2.32375       -3.81300       -2.78588
C         -1.86900       -2.27274       -4.20680
H         -2.17137       -2.85878       -5.05930
C         -1.38031       -0.99268       -4.38727
H         -1.30017       -0.57949       -5.37925
C         -0.97772       -0.24715       -3.29358
H         -0.56533        0.74196       -3.41738
Pd        -1.31557       -0.94332        1.22768
Cl        -1.86801       -2.23627        2.97859
Cl        -1.16322        0.91631        2.47680
C         -1.62136       -5.31828        0.50410
C         -3.35290       -3.45687        0.23926
H          0.12181       -3.68437        1.96588
H          1.13753       -4.84833        1.11499
H          1.13688       -3.14648        0.63491
H         -1.53374       -5.41266        1.59516
H         -1.33877       -6.30249        0.10102
H         -3.54949       -3.17945        1.28361
C         -3.09276       -4.97058        0.13701
C         -4.44978       -2.93100       -0.66195
H         -0.25651       -4.47178       -0.98180
H         -3.30495       -5.29920       -0.88970
H         -3.79878       -5.52365        0.77534
H         -4.26112       -3.19149       -1.70391
H         -5.42204       -3.34894       -0.39113
H         -4.52079       -1.84232       -0.60461
C         -0.89177        4.64259       -0.65851
C          0.35716        4.06372       -1.00083
C          0.46870        2.68326       -0.97660
C         -0.61537        1.89199       -0.69941
C         -1.84940        2.44211       -0.47397
C         -2.03060        3.81564       -0.48159
O         -0.99174        6.04502       -0.45670
C          1.59169        4.90879       -1.35256
H          1.41534        2.20345       -1.15568
H         -2.67086        1.77770       -0.26584
C         -3.44005        4.38141       -0.24839
C          3.77419       -1.36534        0.30923
C          3.19843       -0.33971        1.10265
C          1.92055        0.09118        0.78920
C          1.26340       -0.39277       -0.31036
C          1.85338       -1.31076       -1.13883
C          3.12586       -1.79063       -0.87895
O          4.97448       -1.99906        0.72740
C          3.90758        0.27333        2.31934
H          1.39531        0.78105        1.42754
H          1.29259       -1.66977       -1.98370
C          3.76111       -2.79132       -1.85686
C          1.18664        6.20778       -2.07273
C          2.36863        5.23472       -0.06801
C          2.52834        4.13646       -2.30931
C         -3.63158        5.72260       -0.97945
C         -4.51348        3.41440       -0.79804
C         -3.66882        4.55985        1.26041
C         -0.75032        6.45620        0.88327
H          0.59945        5.98571       -2.96315
H          0.58776        6.84793       -1.42973
H          2.06446        6.77664       -2.37820
H          3.26033        5.82088       -0.28881
H          1.75825        5.80230        0.62985
H          2.68152        4.32016        0.43452
H          2.99062        3.28142       -1.81812
H          1.98209        3.77855       -3.18164
H          3.33635        4.77786       -2.66057
H         -4.65140        6.08911       -0.86486
H         -2.96286        6.48648       -0.59126
H         -3.42866        5.61137       -2.04406
H         -5.50326        3.86794       -0.75035
H         -4.31093        3.16155       -1.83846
H         -4.55802        2.49116       -0.22239
H         -2.94777        5.25101        1.68988
H         -4.66757        4.94631        1.46156
H         -3.56318        3.60798        1.78046
H          0.07569        7.16692        0.90401
H         -1.63540        6.95336        1.27969
H         -0.50660        5.59515        1.50698
C          4.77002       -3.12080        1.57782
C          3.52087       -0.51511        3.57986
C          5.43591        0.27099        2.13584
C          3.48155        1.74750        2.50693
C          5.29155       -2.63056       -1.89570
C          3.38937       -4.22203       -1.43843
C          3.24511       -2.55174       -3.29415
H          3.81829       -1.55802        3.49930
H          3.99830       -0.09559        4.46493
H          2.44224       -0.48977        3.73377
H          5.93159        0.76430        2.97156
H          5.82757       -0.74090        2.07260
H          5.71285        0.79352        1.22080
H          4.06993        2.22388        3.29075
H          3.63056        2.31146        1.58678
H          2.43532        1.83342        2.79606
H          5.73685       -3.29518       -2.63562
H          5.56340       -1.60704       -2.15159
H          5.73936       -2.86367       -0.93286
H          3.83330       -4.95367       -2.11297
H          3.73438       -4.44142       -0.43099
H          2.30886       -4.36035       -1.45717
H          3.37883       -1.51029       -3.58553
H          2.18975       -2.80273       -3.39107
H          3.78736       -3.17146       -4.00795
H          5.25181       -2.94503        2.53943
H          3.70415       -3.29273        1.73239
H          5.21990       -4.00614        1.12876
