64
-97.22367992
Cl        -1.30538       -0.14844       -2.81484
Cl         1.85623       -0.69559       -2.94613
P          1.93745       -0.73060        0.32651
C          2.00503       -2.48731        0.91890
C          3.76231       -0.43905        0.12530
P         -1.25750       -0.30425        0.39256
C          1.21650        0.42617        1.54735
C         -0.22057        0.61258        1.59692
C         -0.51133        1.61995        2.60726
C          0.75460        2.08278        3.14881
C          1.82302        1.34777        2.49407
H         -1.50330        1.94482        2.92655
H          0.88024        2.83416        3.93152
Pd         0.29976       -0.67763       -1.33760
H          2.89311        1.45669        2.68121
C         -5.14631        1.74883       -0.81942
C         -4.25141        2.42436       -0.01397
C         -3.06958        1.81496        0.36375
C         -2.78147        0.54029       -0.06711
C         -3.67683       -0.13827       -0.86215
C         -4.86168        0.46614       -1.24333
H         -6.06755        2.22267       -1.11702
H         -4.47238        3.42507        0.31955
H         -2.36796        2.33250        0.99285
H         -3.43960       -1.13839       -1.18961
H         -5.55810       -0.06319       -1.87269
C         -2.43065       -4.37185        2.03867
C         -2.02950       -4.25768        0.72181
C         -1.67625       -3.02067        0.21389
C         -1.72206       -1.91235        1.02784
C         -2.12959       -2.01706        2.33769
C         -2.48402       -3.25353        2.84775
H         -2.70589       -5.33564        2.43501
H         -1.99284       -5.12973        0.08974
H         -1.37117       -2.91406       -0.81475
H         -2.16136       -1.13271        2.95475
H         -2.79988       -3.34257        3.87419
C          4.15067        0.48636       -1.00651
H          4.09582       -0.02478        1.08608
C          4.30365       -1.86947       -0.03672
H          5.37448       -1.90555        0.21596
C          3.49337       -2.87785        0.81830
H          4.24031       -2.15013       -1.09744
C          1.45344       -2.59176        2.32437
H          1.39928       -3.06879        0.21123
H          3.91708       -2.91547        1.83086
H          3.59672       -3.89877        0.42204
H          0.42069       -2.24484        2.37492
H          1.48302       -3.62041        2.69117
H          2.03493       -1.97450        3.01216
H          3.78230        1.49880       -0.84415
H          5.23583        0.54474       -1.11273
H          3.75002        0.13103       -1.95531
Fe         0.68438        2.32597        1.10214
C         -0.32366        3.83982        0.13171
C         -0.15007        2.70224       -0.75193
C          1.26970        2.43269       -0.85773
C          1.98014        3.40852       -0.05141
C          0.99213        4.27674        0.56590
H         -1.27161        4.32015        0.38388
H         -0.93429        2.15828       -1.28217
H          1.70939        1.67116       -1.50501
H          3.06364        3.49885        0.05375
H          1.20317        5.12782        1.21759
