111
-148.55446787
P         -2.53999       -2.04096       -0.73648
P          0.18415       -0.46716       -0.39274
C         -1.35939       -1.97642       -2.11117
C         -0.15461       -1.32950       -1.94006
C         -3.41822       -3.66827       -0.65774
C         -2.89294       -4.52776        0.47134
C         -1.66121       -2.55869       -3.32563
H         -2.61305       -3.04520       -3.46193
C         -0.74757       -2.49897       -4.36389
H         -0.98227       -2.95351       -5.31255
C          0.46219       -1.85511       -4.18744
H          1.17197       -1.80623       -4.99676
C          0.75759       -1.26355       -2.97242
H          1.68970       -0.74113       -2.82310
Pd        -1.38482       -1.27459        1.10716
Cl        -3.16688       -1.83789        2.34826
Cl        -0.15244       -0.47345        2.80552
C         -4.89445       -3.25189       -0.51904
C         -3.98049       -0.89633       -0.93704
H         -1.82480       -4.72626        0.35508
H         -3.03027       -4.03168        1.43303
H         -3.41384       -5.48691        0.51866
H         -5.15010       -3.21275        0.54886
H         -5.55284       -4.01984       -0.95291
H         -4.09227       -0.37801        0.02485
C         -5.15928       -1.86125       -1.16436
C         -3.74873        0.09470       -2.05699
H         -3.25104       -4.16016       -1.62429
H         -5.31333       -1.98271       -2.24540
H         -6.09279       -1.42191       -0.78103
H         -4.61093        0.75118       -2.19509
H         -2.87712        0.72073       -1.85559
H         -3.56969       -0.42264       -3.00135
C         -1.17411        3.87051       -0.74376
C         -0.90757        3.12028       -1.91781
C         -0.46065        1.81704       -1.77770
C         -0.34099        1.24049       -0.54064
C         -0.69159        1.93047        0.58932
C         -1.15212        3.23287        0.52265
O         -1.43380        5.26384       -0.83657
C         -1.08158        3.70818       -3.32706
H         -0.20308        1.22794       -2.63992
H         -0.60349        1.42518        1.53491
C         -1.61515        3.92399        1.81480
C          4.51168       -0.82161        0.98289
C          3.87211       -1.93528        0.38074
C          2.56377       -1.78781       -0.05124
C          1.88211       -0.61558        0.14837
C          2.46224        0.42704        0.82173
C          3.76227        0.34235        1.29050
O          5.90604       -0.85988        1.25124
C          4.58467       -3.28060        0.17032
H          2.05622       -2.58983       -0.55901
H          1.87782        1.31591        0.98235
C          4.33597        1.50526        2.11526
C          0.21719        4.41112       -3.74929
C         -1.39353        2.59539       -4.35386
C         -2.25905        4.69908       -3.36748
C         -0.41628        4.61522        2.48119
C         -2.72880        4.94740        1.52843
C         -2.20011        2.88887        2.80404
C         -0.27467        6.07880       -0.71720
H          1.05250        3.71122       -3.74591
H          0.12805        4.82615       -4.75293
H          0.46369        5.22415       -3.07093
H         -2.24616        1.99783       -4.03306
H         -1.63430        3.02395       -5.32646
H         -0.54315        1.93094       -4.49995
H         -2.42462        5.07016       -4.37859
H         -3.17619        4.21894       -3.02769
H         -2.07541        5.55876       -2.72755
H          0.35498        3.88820        2.73329
H          0.02986        5.35554        1.82135
H         -0.71693        5.11895        3.39947
H         -3.10182        5.38959        2.45189
H         -2.37174        5.75704        0.89710
H         -3.56529        4.47070        1.01846
H         -1.43292        2.21940        3.18996
H         -2.65081        3.38568        3.66272
H         -2.97025        2.28553        2.32408
H          0.61817        5.45954       -0.62163
H         -0.18451        6.71424       -1.59814
H         -0.36629        6.72197        0.15774
C          6.71601       -0.37283        0.18880
C          5.60029       -3.55209        1.29519
C          3.56978       -4.44611        0.19084
C          5.29312       -3.27206       -1.19271
C          5.00911        2.51645        1.17529
C          3.21043        2.22817        2.89066
C          5.34524        0.99540        3.15981
H          6.05571       -4.53573        1.18337
H          6.40140       -2.81719        1.29262
H          5.11348       -3.51199        2.26903
H          2.95921       -4.41218        1.09280
H          2.90818       -4.42015       -0.67373
H          4.08377       -5.40686        0.17071
H          6.03338       -2.47751       -1.24718
H          5.80114       -4.21874       -1.37485
H          4.57650       -3.11272       -1.99816
H          5.82527        2.05843        0.62198
H          4.29345        2.90398        0.45049
H          5.41347        3.35975        1.73460
H          2.54235        2.76562        2.21956
H          2.61901        1.51782        3.46792
H          3.62486        2.96053        3.58305
H          6.21079        0.53948        2.68548
H          4.88455        0.24699        3.80375
H          5.70430        1.80977        3.78853
H          7.31861        0.46351        0.54264
H          7.39118       -1.15988       -0.14653
H          6.09408       -0.04693       -0.64586
