45
-71.81684520
C          0.72116        1.79047        2.98278
P         -0.03873        0.85215        1.61404
P         -0.16422        0.80007       -1.52862
C          0.52610        1.79040       -2.89670
Cl         2.94751       -0.29250        1.61636
H          1.53481        1.21645        3.41699
H          0.93637        2.71893       -2.51012
Cl         2.91314       -0.20343       -1.69695
C         -1.31787        1.79663        0.76819
C         -1.37873        1.76453       -0.60711
C         -2.37208        2.45258       -1.27386
C         -3.30982        3.17266       -0.55474
C         -3.25236        3.19847        0.82536
C         -2.25552        2.50595        1.49010
H         -2.41079        2.41963       -2.35075
H         -4.08700        3.71055       -1.07229
H         -3.98572        3.75495        1.38545
H         -2.20721        2.50711        2.56705
Pd         1.50371        0.24499       -0.01163
H         -0.25003        2.01868       -3.62143
H         -0.01669        1.99842        3.75230
H          1.31701        1.23361       -3.39111
C         -1.85091       -3.16797       -2.96434
C         -2.71501       -2.14877       -2.61399
C         -2.21083       -0.93144       -2.19368
C         -0.84900       -0.74457       -2.12694
C          0.01534       -1.75672       -2.47469
C         -0.48509       -2.97439       -2.89661
H         -2.24359       -4.11710       -3.29080
H         -3.78050       -2.30181       -2.66474
H         -2.87230       -0.13083       -1.90550
H          1.07765       -1.58596       -2.39810
H          0.18953       -3.76997       -3.16695
C         -1.77335       -3.19049        2.76114
C         -1.82394       -2.73794        1.45765
C         -1.29082       -1.50239        1.14116
C         -0.71250       -0.73082        2.12141
C         -0.65717       -1.17732        3.42183
C         -1.19087       -2.41259        3.74318
H         -2.18680       -4.15359        3.01233
H         -2.27218       -3.34403        0.68765
H         -1.30903       -1.13715        0.12898
H         -0.19586       -0.56399        4.17834
H         -1.14956       -2.76834        4.75958
H          1.11577        2.73050        2.60783
