45
-71.82074357
C          0.40439        1.46819        3.13633
P         -0.17660        0.75108        1.56416
P         -0.14431        0.79008       -1.57285
C          0.43162        1.52823       -3.13729
Cl         2.94555       -0.22649        1.60285
H         -0.41865        1.53945        3.84156
H          1.21926        0.91400       -3.56433
Cl         3.10383        0.28345       -1.55060
C         -1.33649        1.81986        0.68582
C         -1.32445        1.83493       -0.69234
C         -2.23475        2.60562       -1.38622
C         -3.15602        3.37049       -0.69275
C         -3.16782        3.35554        0.68860
C         -2.25855        2.57537        1.38084
H         -2.22492        2.59919       -2.46403
H         -3.86722        3.97477       -1.23150
H         -3.88825        3.94806        1.22815
H         -2.26736        2.54487        2.45829
Pd         1.49335        0.40273        0.00765
H          0.82243        2.52494       -2.95359
H          0.81201        2.45990        2.96219
H         -0.38927        1.59155       -3.84581
C         -1.71947       -3.45214       -1.95249
C         -0.36738       -3.20146       -2.08244
C          0.10312       -1.90433       -1.99057
C         -0.77998       -0.87255       -1.77067
C         -2.12710       -1.11554       -1.63753
C         -2.60085       -2.41170       -1.73177
H         -2.08744       -4.46290       -2.01948
H          0.32086       -4.01383       -2.24825
H          1.15694       -1.68651       -2.06787
H         -2.79845       -0.29393       -1.44619
H         -3.65466       -2.60914       -1.62362
C         -1.86052       -3.45306        1.91825
C         -2.71939       -2.38104        1.77247
C         -2.21107       -1.09753        1.68423
C         -0.85163       -0.89827        1.74776
C          0.00788       -1.96223        1.89371
C         -0.49630       -3.24650        1.97936
H         -2.25584       -4.45374        1.98075
H         -3.78325       -2.54380        1.71856
H         -2.86590       -0.25140        1.55169
H          1.07012       -1.77707        1.92125
H          0.17451       -4.08288        2.08707
H          1.17976        0.83760        3.56208
