58
-89.86729922
P          1.56376       -0.01769        0.72120
C          2.94331        1.13234        0.73414
C          4.22377        0.63415        0.64977
C          5.30226        1.50053        0.66419
C          5.08910        2.86115        0.76428
C          3.80285        3.35628        0.85011
C          2.72664        2.48739        0.83672
H          1.71770        2.86406        0.88539
H          4.37322       -0.43084        0.56878
C          2.03242       -1.54309       -0.10279
C          2.19276       -1.50483       -1.46904
C          2.54466       -2.65248       -2.15490
C          2.73951       -3.83120       -1.46243
C          2.58899       -3.86260       -0.08974
C          2.23611       -2.71280        0.59335
H          2.11807       -2.72618        1.66437
H          2.04073       -0.57021       -1.98652
C          1.03134       -0.27216        2.46498
C          0.07475        0.83005        2.90385
C         -1.38894        0.54370        2.59804
P         -1.73702        0.03468        0.85895
C         -3.44509        0.42947        0.46753
C         -3.89387        1.72188        0.61488
C         -5.20664        2.03340        0.30830
C         -6.06081        1.04688       -0.14348
C         -5.60602       -0.24855       -0.29126
C         -4.29274       -0.55618        0.01494
H         -3.92349       -1.56228       -0.09939
H         -3.21134        2.48612        0.95175
C         -1.43156       -1.72239        0.57810
C         -1.28654       -2.15296       -0.72164
C         -1.02173       -3.48394       -0.98653
C         -0.91086       -4.38167        0.05545
C         -1.07327       -3.95173        1.35700
C         -1.33875       -2.61991        1.61741
H         -1.48245       -2.28615        2.63126
H         -1.38317       -1.44377       -1.52862
Pd        -0.12264        0.83351       -0.62050
Cl         1.40725        1.82165       -1.93456
Cl        -1.82569        1.81723       -1.70637
H         -1.77187       -0.25157        3.23922
H         -2.00677        1.42121        2.80272
H          0.18712        1.01955        3.98302
H          0.37464        1.76913        2.41856
H          0.57444       -1.25572        2.56950
H          1.94766       -0.28073        3.06079
H          6.30559        1.11349        0.59493
H          3.63612        4.41850        0.92185
H          2.66570       -2.62532       -3.22527
H          2.74267       -4.78289        0.44945
H         -5.55916        3.04593        0.41679
H         -6.27115       -1.01820       -0.64697
H         -0.89633       -3.81659       -2.00379
H         -0.99285       -4.65367        2.17075
H          5.92786        3.53801        0.77238
H          3.01173       -4.72831       -1.99415
H         -7.08298        1.28922       -0.38468
H         -0.69846       -5.41869       -0.14738
