105
-153.07038733
Cl        -0.96610        2.12867       -2.83065
Pd         0.05650        1.53547       -0.90414
P          1.38654        0.75231        0.83194
N          0.56742       -0.42811        1.83882
C          0.00681       -1.67949        1.62578
C         -0.11559       -2.29355        0.35449
C         -0.80606       -3.51838        0.24050
C         -0.94127       -4.15003       -1.12446
C         -2.00551       -5.25543       -1.20312
C         -1.88753       -6.21288       -0.01381
C         -2.06236       -5.45949        1.31377
C         -1.32205       -4.14650        1.37611
C         -1.15466       -3.54556        2.61624
C         -0.51006       -2.34251        2.73860
H         -0.41674       -1.87921        3.70549
H         -1.55929       -4.02969        3.48898
H         -3.12696       -5.26686        1.49133
H         -2.61652       -7.03125       -0.09879
H         -3.00356       -4.79956       -1.20338
H         -1.16893       -3.36442       -1.85517
C          0.62820       -1.80098       -0.83080
C         -0.05940       -1.16677       -1.90236
C          0.64081       -0.91749       -3.08660
C          1.95607       -1.27967       -3.21987
C          2.62960       -1.93509       -2.19650
C          4.04541       -2.38913       -2.43397
C          4.41288       -3.62382       -1.59931
C          4.09122       -3.38121       -0.12174
C          2.60623       -3.03566        0.09168
C          1.96584       -2.20466       -0.99857
H          2.03121       -3.96387        0.19213
H          4.71386       -2.55828        0.24530
H          5.47129       -3.88907       -1.73338
H          4.72598       -1.56356       -2.19779
H          2.47900       -1.06914       -4.13730
H          0.13580       -0.40938       -3.88916
N         -1.39855       -0.76640       -1.80624
P         -1.87780        0.21964       -0.42085
C         -2.83044       -0.74896        0.74717
C         -3.52356       -1.83425        0.26874
C         -4.31300       -2.57818        1.12690
C         -4.40886       -2.23511        2.46877
C         -3.72518       -1.11511        2.92427
C         -2.94031       -0.36955        2.06339
H         -2.41219        0.50243        2.41232
H         -3.80978       -0.83163        3.95942
C         -5.25768       -3.03298        3.39581
H         -4.85565       -3.43203        0.75898
H         -3.43512       -2.09638       -0.77368
C         -2.99629        1.53869       -0.90525
C         -2.92769        2.74916       -0.25637
C         -3.79151        3.76780       -0.61509
C         -4.72779        3.57806       -1.62272
C         -4.79456        2.34032       -2.24865
C         -3.92930        1.32246       -1.89003
H         -3.98118        0.35935       -2.37184
H         -5.52810        2.17876       -3.01995
C         -5.67140        4.66791       -1.99585
H         -3.74182        4.71919       -0.11361
H         -2.19808        2.89409        0.52510
H         -1.76035       -0.27942       -2.61624
H          0.74478       -0.16133        2.79952
C          1.33639        2.29164        1.75603
C          2.40183        3.15997        1.74854
C          2.31299        4.35987        2.43000
C          1.15695        4.69676        3.12188
C          0.08601        3.81308        3.10391
C          0.17801        2.61264        2.42306
H         -0.65124        1.92443        2.40125
H         -0.82143        4.07236        3.62206
C          1.05114        6.00309        3.82885
H          3.14123        5.04766        2.42182
H          3.29306        2.90194        1.19999
C          3.12072        0.30834        0.71296
C          3.87493        0.64122       -0.38637
C          5.22534        0.35021       -0.41230
C          5.83376       -0.27301        0.66842
C          5.06370       -0.57678        1.78309
C          3.71049       -0.28783        1.80269
H          3.11046       -0.51929        2.66824
H          5.52920       -1.04315        2.63447
C          7.29136       -0.57560        0.64766
H          5.81878        0.61642       -1.27028
H          3.40949        1.15901       -1.20706
Cl         1.86839        2.65477       -1.63737
H         -1.73632       -6.08859        2.15198
H         -1.93166       -5.80293       -2.15337
H         -0.90142       -6.69393       -0.03274
H          0.03419       -4.55270       -1.42156
H          4.37736       -4.25231        0.48422
H          2.47500       -2.51392        1.04722
H          4.18813       -2.59242       -3.50295
H          3.84169       -4.48907       -1.95871
H         -6.26929       -2.62745        3.44119
H         -5.32540       -4.07242        3.07152
H         -4.84674       -3.02879        4.40639
H         -6.58153        4.61453       -1.39690
H         -5.22128        5.64905       -1.83844
H         -5.95513        4.59975       -3.04698
H          2.02002        6.31962        4.21764
H          0.68903        6.77988        3.15403
H          0.36110        5.94068        4.67147
H          7.86546        0.25526        1.05991
H          7.51667       -1.46611        1.23622
H          7.64144       -0.75513       -0.36988
