171
-217.84730840
P         -1.60599        0.39133       -0.34749
P          1.64023       -0.34663       -0.21110
C         -0.81365        1.40729       -1.59775
C          0.98811       -1.27869       -1.59908
C          0.03678        0.83698       -2.53883
C          0.70560        1.68257       -3.44472
C          0.47428        3.04736       -3.39502
C         -0.39003        3.58979       -2.46751
C         -1.02733        2.76348       -1.56318
C          1.20260       -2.63444       -1.64067
C          0.67021       -3.38966       -2.66671
C         -0.08689       -2.77684       -3.64293
C         -0.31498       -1.41070       -3.61874
C          0.24380       -0.63753       -2.58287
Cl         1.40558        0.29146        3.02550
Cl        -1.67590       -0.34719        2.88189
C         -1.13378       -0.78556       -4.69345
C          1.65453        1.13940       -4.45522
H         -0.56419        4.65308       -2.44355
H         -1.69508        3.17821       -0.82546
H          1.79112       -3.10447       -0.86969
H          0.84518       -4.45248       -2.70206
H          0.98575        3.68844       -4.09314
H         -0.51333       -3.36279       -4.43964
C         -3.70420       -3.26990       -1.96310
C         -2.76446       -3.43127       -0.95291
C         -2.11927       -2.29582       -0.47945
C         -2.39039       -1.06679       -1.02653
C         -3.30615       -0.92578       -2.04031
C         -3.99197       -2.03287       -2.52603
H         -4.24608       -4.13200       -2.30553
H         -1.41020       -2.35670        0.32770
H         -3.49259        0.05948       -2.43314
C         -4.68691        2.68370        2.07292
C         -3.34714        3.02739        2.20919
C         -2.41494        2.33821        1.44252
C         -2.81693        1.34264        0.58651
C         -4.14484        1.01514        0.46992
C         -5.11123        1.68195        1.20876
H         -5.41148        3.20328        2.67120
H         -1.36376        2.55272        1.52858
H         -4.43266        0.21696       -0.19124
C          4.34844       -2.83235        2.45587
C          3.00561       -3.18061        2.36030
C          2.19809       -2.43513        1.51097
C          2.71140       -1.37015        0.81346
C          4.03543       -1.03043        0.93527
C          4.88525       -1.75846        1.75553
H          4.98964       -3.40647        3.09631
H          1.15379       -2.67488        1.40498
H          4.41066       -0.17959        0.39438
C          3.98786        3.32043       -1.41640
C          2.92686        3.47144       -0.53242
C          2.20783        2.33585       -0.18099
C          2.53040        1.11777       -0.72459
C          3.56831        0.98761       -1.61442
C          4.32751        2.09470       -1.97478
H          4.58255        4.18138       -1.65976
H          1.39782        2.38778        0.52568
H          3.78921        0.01000       -2.00863
Pd        -0.06150       -0.02317        1.34696
C         -1.31887       -4.80018        0.62253
C         -2.50517       -4.82215       -0.35964
C         -2.17621       -5.81481       -1.49084
C         -3.76279       -5.28948        0.39345
H         -1.10947       -5.80063        1.00080
H         -0.41899       -4.43279        0.13038
H         -1.53007       -4.16270        1.48060
H         -1.94329       -6.80052       -1.08841
H         -3.01275       -5.92807       -2.17897
H         -1.31532       -5.47291       -2.06402
H         -3.60879       -6.27200        0.83922
H         -4.01437       -4.59125        1.19161
H         -4.62008       -5.35478       -0.27585
C         -4.84324       -2.91491       -4.72598
C         -5.09727       -1.91140       -3.58464
C         -5.15294       -0.49402       -4.18790
C         -6.45297       -2.21638       -2.92197
H         -4.87303       -3.94310       -4.36816
H         -5.59847       -2.81571       -5.50551
H         -3.86780       -2.74740       -5.18062
H         -4.20037       -0.22278       -4.64176
H         -5.91800       -0.43309       -4.96178
H         -5.39690        0.24851       -3.42870
H         -6.47221       -3.22658       -2.51414
H         -6.64681       -1.52311       -2.10376
H         -7.26802       -2.12842       -3.64010
C         -1.41912        4.37214        3.18047
C         -2.93390        4.09718        3.22962
C         -3.29482        3.60641        4.64325
C         -3.67502        5.41262        2.92665
H         -1.12283        4.71922        2.19160
H         -1.14074        5.14278        3.89910
H         -0.84766        3.47593        3.42162
H         -2.99721        4.33429        5.39778
H         -4.36699        3.44071        4.74204
H         -2.78984        2.66567        4.86221
H         -3.45343        5.75445        1.91574
H         -4.75413        5.29046        3.01017
H         -3.37542        6.19723        3.62126
C         -7.50367        2.10182        1.97158
C         -6.58322        1.27460        1.05427
C         -6.73760       -0.21417        1.41955
C         -7.01823        1.49579       -0.40632
H         -8.54371        1.79933        1.84982
H         -7.24025        1.96222        3.01985
H         -7.43977        3.16413        1.73667
H         -7.77818       -0.52901        1.34341
H         -6.14926       -0.84880        0.75772
H         -6.40271       -0.39596        2.44053
H         -6.42020        0.89632       -1.09142
H         -8.06342        1.22176       -0.54863
H         -6.90105        2.54180       -0.68882
C          1.10199       -3.89633        3.83892
C          2.39936       -4.35469        3.14208
C          3.36405       -4.87717        4.22454
C          2.08905       -5.49815        2.16159
H          0.34100       -3.60090        3.11868
H          0.68318       -4.69643        4.44884
H          1.29565       -3.04237        4.48764
H          4.27008       -5.28975        3.78156
H          3.64629       -4.08031        4.91246
H          2.89681       -5.67030        4.80819
H          1.62879       -6.34175        2.67565
H          1.40854       -5.16693        1.37915
H          3.00081       -5.85074        1.67977
C          7.01460       -1.47094        0.46796
C          6.36024       -1.34470        1.85612
C          7.13634       -2.23140        2.84837
C          6.44564        0.11666        2.33706
H          8.06577       -1.18542        0.50372
H          6.95459       -2.49707        0.10582
H          6.51924       -0.83097       -0.26106
H          6.70826       -2.16722        3.84857
H          7.12681       -3.27469        2.53345
H          8.17795       -1.91720        2.91434
H          7.48322        0.43147        2.44681
H          5.96568        0.79589        1.63343
H          5.95275        0.23284        3.30203
C          2.44523        5.87705       -1.07698
C          2.61381        4.85148        0.06020
C          3.77302        5.27812        0.97774
C          1.31341        4.82755        0.88534
H          1.66021        5.56382       -1.76418
H          2.17620        6.85635       -0.68153
H          3.36425        5.99311       -1.64979
H          3.91151        4.55643        1.78265
H          4.70896        5.34447        0.42387
H          3.57830        6.25215        1.42620
H          1.07849        5.82130        1.26637
H          0.47269        4.49707        0.27595
H          1.40422        4.16029        1.74212
C          5.47255        3.02697       -4.01633
C          5.55683        1.98144       -2.88751
C          5.65938        0.58361       -3.52898
C          6.82198        2.23189       -2.04703
H          4.56356        2.89474       -4.60153
H          5.47212        4.04216       -3.62209
H          6.32256        2.93715       -4.69258
H          6.51364        0.52951       -4.20367
H          5.79189       -0.18909       -2.77218
H          4.76516        0.35113       -4.10668
H          6.89496        1.50895       -1.23491
H          7.72064        2.14666       -2.65769
H          6.80891        3.22803       -1.60571
H         -1.98769       -1.41439       -4.94607
H          1.96408        0.12319       -4.20761
H         -0.54388       -0.64335       -5.59990
H         -1.52053        0.18674       -4.38526
H          2.55450        1.75237       -4.50849
H          1.20103        1.12333       -5.44721
