64
-97.22112772
Cl        -1.27968       -0.32096       -2.84976
Cl         1.86630       -0.60013       -2.93354
P          1.96773       -0.69295        0.33358
C          2.07572       -2.44495        0.93443
C          3.78638       -0.34897        0.14938
P         -1.26513       -0.32084        0.38462
C          1.20460        0.43897        1.55208
C         -0.23692        0.59579        1.59632
C         -0.55245        1.58730        2.61408
C          0.70448        2.07717        3.15260
C          1.79138        1.35203        2.51835
H         -1.55120        1.89359        2.93024
H          0.81194        2.82561        3.94086
Pd         0.31634       -0.70114       -1.31590
H          2.85763        1.47873        2.71395
C         -5.13436        1.74017       -0.87654
C         -4.83746        0.46459       -1.31321
C         -3.65863       -0.14206       -0.91727
C         -2.78084        0.52716       -0.09518
C         -3.08175        1.79465        0.34865
C         -4.25767        2.40625       -0.04370
H         -6.05096        2.21575       -1.18544
H         -5.51972       -0.05754       -1.96373
H         -3.41241       -1.13686       -1.25413
H         -2.39407        2.30611        0.99790
H         -4.48822        3.40141        0.29980
C         -2.45416       -4.39117        2.01008
C         -2.05085       -4.27125        0.69435
C         -1.69318       -3.03259        0.19364
C         -1.73704       -1.92855        1.01346
C         -2.14649       -2.03889        2.32225
C         -2.50530       -3.27703        2.82512
H         -2.73292       -5.35621        2.40090
H         -2.01615       -5.13997        0.05761
H         -1.38750       -2.92034       -0.83425
H         -2.17615       -1.15780        2.94403
H         -2.82300       -3.37063        3.85060
C          4.16354        0.53821       -1.01654
H          4.08866        0.11875        1.09570
C          4.38370       -1.76314        0.05652
H          5.44534       -1.75088        0.34719
C          3.58137       -2.77173        0.91724
H          4.36896       -2.08221       -0.99498
C          1.45246       -2.57574        2.30733
H          1.53610       -3.05205        0.19538
H          3.95933       -2.74873        1.94820
H          3.74667       -3.80225        0.56958
H          1.96510       -1.93239        3.02524
H          0.40347       -2.27820        2.29950
H          1.50993       -3.60202        2.67738
H          5.24763        0.63717       -1.10167
H          3.80098        0.12138       -1.95558
H          3.74995        1.54058       -0.91279
Fe         0.63490        2.33975        1.10855
C          1.94847        3.40542       -0.05680
C          0.97665        4.30107        0.54697
C         -0.34481        3.86177        0.13478
C         -0.18302        2.70847       -0.73220
C          1.23375        2.44136       -0.87293
H          3.03306        3.49086        0.03965
H          1.19988        5.15427        1.19134
H         -1.28956        4.34480        0.39417
H         -0.97703        2.16860       -1.25221
H          1.66289        1.67038       -1.51591
