171
-217.84845635
P         -1.58081        0.30785       -0.40436
P          1.62623       -0.42498       -0.16320
C         -0.78383        1.26882       -1.69428
C          1.01626       -1.39949       -1.54761
C          0.06346        0.65681       -2.61037
C          0.71159        1.45587       -3.57207
C          0.46635        2.81897       -3.59555
C         -0.39197        3.40331       -2.68818
C         -1.01166        2.62243       -1.73216
C          1.23669       -2.75532       -1.52105
C          0.72203       -3.56516       -2.51383
C         -0.03024       -3.00791       -3.52561
C         -0.26600       -1.64411       -3.57204
C          0.28076       -0.81499       -2.57357
Cl         1.28823       -0.03317        3.09897
Cl        -1.81388       -0.55713        2.78474
C         -1.09753       -1.08807       -4.67477
C          1.63484        0.85864       -4.57576
H         -0.57960        4.46384       -2.72568
H         -1.67885        3.06919       -1.01249
H          1.81474       -3.18522       -0.71955
H          0.90237       -4.62749       -2.49245
H          0.95799        3.42509       -4.33770
H         -0.44909       -3.63606       -4.29373
C         -3.75142       -3.33666       -1.97067
C         -2.82035       -3.49605       -0.95229
C         -2.16827       -2.36151       -0.48705
C         -2.42225       -1.13531       -1.04868
C         -3.32532       -0.99797       -2.07446
C         -4.01881       -2.10390       -2.55292
H         -4.29939       -4.19716       -2.30729
H         -1.46076       -2.42330        0.32130
H         -3.48607       -0.01894       -2.49284
C         -4.49310        2.92963        1.88819
C         -3.13345        3.06561        2.13784
C         -2.25858        2.27369        1.40517
C         -2.73509        1.35271        0.50454
C         -4.08450        1.21169        0.29479
C         -4.99426        2.00760        0.97850
H         -5.18419        3.55916        2.41729
H         -1.19549        2.35829        1.54627
H         -4.42430        0.46952       -0.40431
C          4.58799       -2.73548        2.38299
C          3.26324       -3.15545        2.36056
C          2.36956       -2.45314        1.56106
C          2.79385       -1.37696        0.82169
C          4.10590       -0.97570        0.85973
C          5.03415       -1.64866        1.64087
H          5.28121       -3.26405        3.00983
H          1.32741       -2.72096        1.53265
H          4.40831       -0.11570        0.28854
C          3.65884        3.48396       -1.18233
C          2.64665        3.48288       -0.23011
C          2.01289        2.27753        0.03930
C          2.37849        1.13341       -0.62519
C          3.38070        1.14964       -1.56395
C          4.04817        2.33314       -1.85736
H          4.17782        4.39953       -1.39466
H          1.24262        2.22481        0.78949
H          3.64895        0.22571       -2.04765
Pd        -0.12387       -0.17039        1.35213
C         -2.24957       -5.88785       -1.47177
C         -2.56925       -4.88382       -0.34781
C         -3.82884       -5.33599        0.41096
C         -1.38037       -4.86412        0.63244
H         -2.02018       -6.87128       -1.06183
H         -3.08924       -6.00286       -2.15577
H         -1.38914       -5.55523       -2.05118
H         -3.68221       -6.31719        0.86210
H         -4.07241       -4.63096        1.20559
H         -4.68821       -5.39772       -0.25601
H         -1.58259       -4.21617        1.48499
H         -1.18166       -5.86315        1.02012
H         -0.47545       -4.51276        0.13743
C         -6.47668       -2.25106       -2.98613
C         -5.10500       -1.98625       -3.63229
C         -4.85570       -3.02052       -4.74740
C         -5.12273       -0.58224       -4.26818
H         -6.51989       -3.24968       -2.55242
H         -6.67288       -1.53329       -2.19036
H         -7.27761       -2.16859       -3.72062
H         -5.59957       -2.92491       -5.53822
H         -3.87248       -2.88268       -5.19469
H         -4.91010       -4.03958       -4.36715
H         -5.36614        0.18181       -3.53047
H         -4.15697       -0.33928       -4.71023
H         -5.87240       -0.52466       -5.05723
C         -2.74613        5.49396        2.59104
C         -2.63067        4.07745        3.17766
C         -1.16107        3.80738        3.55831
C         -3.47517        3.97511        4.46345
H         -3.78080        5.73011        2.34361
H         -2.38895        6.24129        3.29934
H         -2.15646        5.58255        1.67880
H         -0.49875        3.96969        2.71070
H         -0.83677        4.47582        4.35565
H         -1.03024        2.78282        3.90658
H         -3.08543        4.63564        5.23783
H         -4.51255        4.25545        4.28738
H         -3.46115        2.95668        4.85123
C         -7.06218        3.23299        0.26274
C         -6.50958        1.88622        0.76392
C         -7.18209        1.51033        2.09698
C         -6.85029        0.80127       -0.27673
H         -8.13524        3.17142        0.08214
H         -6.89171        4.02649        0.98937
H         -6.57887        3.52370       -0.66987
H         -7.01504        2.27501        2.85462
H         -8.25852        1.39412        1.97208
H         -6.78232        0.57034        2.47692
H         -6.49043       -0.17603        0.04455
H         -7.92824        0.72534       -0.41874
H         -6.40608        1.03365       -1.24433
C          1.33272       -4.67468        3.02123
C          2.81688       -4.32718        3.24611
C          3.00922       -3.93977        4.72329
C          3.66078       -5.57260        2.91708
H          1.03310       -5.51798        3.64322
H          0.68822       -3.83352        3.27598
H          1.15283       -4.94938        1.98251
H          2.68329       -4.74292        5.38389
H          4.05512       -3.72866        4.94309
H          2.43078       -3.04775        4.96335
H          4.71746       -5.40289        3.11958
H          3.34210       -6.42754        3.51321
H          3.55940       -5.83841        1.86497
C          7.06840       -1.20784        0.24325
C          6.48671       -1.15287        1.66824
C          7.36711       -2.01660        2.59114
C          6.51467        0.29942        2.18143
H          8.10570       -0.87366        0.23161
H          7.03612       -2.22487       -0.14696
H          6.50608       -0.57068       -0.43807
H          7.00343       -1.98924        3.61814
H          7.38526       -3.05395        2.25745
H          8.39479       -1.65348        2.59582
H          5.94853        0.96213        1.52770
H          6.07946        0.36309        3.17850
H          7.53613        0.67582        2.23308
C          2.42606        4.47388        2.05981
C          2.23862        4.73803        0.55356
C          0.76360        5.06272        0.25856
C          3.09268        5.95980        0.16436
H          3.46816        4.24561        2.28243
H          2.13750        5.34451        2.64841
H          1.82480        3.62994        2.39449
H          0.62740        5.29672       -0.79647
H          0.11758        4.21981        0.49732
H          0.42762        5.92128        0.83964
H          2.97833        6.19775       -0.89306
H          2.79118        6.83867        0.73418
H          4.14848        5.78110        0.36721
C          6.50522        2.76406       -2.05105
C          5.23296        2.38635       -2.83240
C          4.96089        3.44201       -3.92044
C          5.47038        1.02612       -3.51737
H          6.40520        3.74279       -1.58308
H          6.70381        2.03675       -1.26398
H          7.37324        2.79512       -2.70935
H          5.77502        3.47359       -4.64434
H          4.04089        3.21642       -4.45802
H          4.86036        4.43832       -3.49197
H          4.59199        0.70752       -4.07680
H          6.30360        1.08621       -4.21740
H          5.71156        0.25464       -2.78659
H         -1.99968       -1.68354       -4.81354
H          2.46398        1.53219       -4.79292
H         -0.54830       -1.08995       -5.61725
H         -1.40959       -0.06414       -4.46535
H          1.11496        0.66069       -5.51390
H          2.05670       -0.08144       -4.21747
