111
-148.55557338
P         -2.35290       -2.32265       -0.92586
P          0.05237       -0.31306       -0.45117
C         -1.33921       -1.79431       -2.32565
C         -0.32730       -0.88227       -2.12232
C         -2.51719       -4.16099       -0.83712
C         -1.70554       -4.71109        0.31569
C         -1.60617       -2.26111       -3.59650
H         -2.39642       -2.97950       -3.74393
C         -0.86432       -1.79720       -4.66912
H         -1.07172       -2.15931       -5.66282
C          0.13257       -0.86175       -4.46830
H          0.70311       -0.49190       -5.30430
C          0.39917       -0.40016       -3.19168
H          1.16636        0.33917       -3.02146
Pd        -1.53802       -1.27335        0.95565
Cl        -3.36714       -1.93308        2.07502
Cl        -0.68527       -0.11436        2.68042
C         -4.03717       -4.36920       -0.70107
C         -4.13392       -1.84448       -1.12266
H         -0.64470       -4.47332        0.20389
H         -2.03964       -4.28081        1.26206
H         -1.80472       -5.79651        0.39232
H         -4.28775       -4.44384        0.36613
H         -4.33325       -5.33333       -1.14174
H         -4.43342       -1.40665       -0.16127
C         -4.83736       -3.19775       -1.33667
C         -4.33904       -0.85075       -2.24750
H         -2.15612       -4.55411       -1.79641
H         -4.94719       -3.37297       -2.41563
H         -5.86291       -3.16211       -0.93890
H         -5.38481       -0.54428       -2.32363
H         -3.73241        0.04554       -2.10508
H         -4.05422       -1.28459       -3.20699
C         -0.99599        4.10375       -0.13254
C         -2.02250        3.12731       -0.20596
C         -1.65418        1.79898       -0.33837
C         -0.33628        1.42557       -0.30654
C          0.65520        2.35277       -0.12145
C          0.35672        3.69912        0.00562
O         -1.31744        5.48306       -0.23769
C         -3.51642        3.48248       -0.15032
H         -2.39827        1.03150       -0.46179
H          1.67335        2.00767       -0.07997
C          1.49574        4.69668        0.26802
C          4.41988       -0.96857        0.71014
C          3.98416       -1.33331       -0.58890
C          2.65378       -1.13208       -0.91599
C          1.75776       -0.65415        0.00583
C          2.15642       -0.41238        1.29449
C          3.46872       -0.59632        1.69308
O          5.80721       -0.94174        1.01349
C          4.94044       -1.89899       -1.65062
H          2.30180       -1.34205       -1.90908
H          1.41299       -0.07875        1.99536
C          3.84139       -0.37098        3.16707
C         -4.31817        2.34385        0.52243
C         -3.75563        4.75157        0.68764
C         -4.04508        3.68349       -1.57828
C          1.00259        5.89634        1.09746
C          2.62913        4.02680        1.07782
C          2.06663        5.18037       -1.07324
C         -1.34136        5.96844       -1.57400
H         -5.35232        2.64411        0.68900
H         -4.34240        1.44660       -0.09326
H         -3.88511        2.08340        1.48791
H         -3.34158        4.63331        1.68841
H         -3.28690        5.62114        0.23389
H         -4.82023        4.96348        0.78331
H         -3.90715        2.77984       -2.17146
H         -5.10794        3.92367       -1.57103
H         -3.52060        4.49264       -2.08149
H          1.82480        6.56823        1.34244
H          0.25704        6.47324        0.55584
H          0.55105        5.55820        2.02953
H          3.14189        3.25931        0.49987
H          3.37985        4.75947        1.37309
H          2.23385        3.56893        1.98393
H          1.30445        5.67839       -1.66815
H          2.88558        5.88244       -0.91873
H          2.44631        4.34108       -1.65553
H         -1.08914        5.17018       -2.27319
H         -2.33396        6.35405       -1.80602
H         -0.62499        6.78308       -1.67934
C          6.42596        0.31736        0.78040
C          6.05096       -2.74466       -1.00110
C          4.18447       -2.82441       -2.63121
C          5.55637       -0.73961       -2.44831
C          4.20239        1.10646        3.38120
C          2.65233       -0.72601        4.08921
C          5.01730       -1.27158        3.58690
H          6.69102       -3.19859       -1.75724
H          6.68327       -2.14025       -0.35540
H          5.62152       -3.54267       -0.39636
H          4.88030       -3.32719       -3.30252
H          3.62851       -3.59028       -2.09102
H          3.48606       -2.26798       -3.25460
H          6.23106       -1.11101       -3.21924
H          4.77892       -0.15080       -2.93470
H          6.12068       -0.07230       -1.80139
H          3.35633        1.74706        3.13565
H          4.47736        1.29503        4.41860
H          5.03742        1.40482        2.75179
H          2.95129       -0.69318        5.13655
H          1.82632       -0.02645        3.97142
H          2.28355       -1.72919        3.87745
H          5.92189       -1.02621        3.03629
H          4.78482       -2.31892        3.39721
H          5.23733       -1.15965        4.64828
H          7.24364        0.19592        0.07009
H          5.70192        1.03009        0.38335
H          6.83968        0.70085        1.71286
