87
-129.18823307
P         -1.65506       -0.35241       -0.19150
P          1.62185        0.36345       -0.11678
C         -1.37835        0.96326       -1.39636
C          1.40326       -0.66433       -1.57647
C         -0.39232        0.87843       -2.37588
C         -0.17567        1.98584       -3.21899
C         -0.96260        3.11511       -3.07223
C         -1.94302        3.17633       -2.10631
C         -2.14207        2.09851       -1.26671
C          2.18863       -1.78290       -1.71358
C          2.02632       -2.61739       -2.80164
C          1.06776       -2.32572       -3.74834
C          0.26260       -1.20547       -3.62866
C          0.43637       -0.34794       -2.52428
Cl         1.21702        0.82387        3.10233
Cl        -1.45574       -1.03508        2.90804
H         -2.54518        4.06376       -1.99989
H         -2.90002        2.14522       -0.50277
H          2.93367       -2.00547       -0.96801
H          2.64169       -3.49594       -2.90597
H         -0.79420        3.95697       -3.72224
H          0.93153       -2.97762       -4.59451
C         -1.33926       -4.52765       -1.95561
C         -0.61064       -4.21251       -0.81686
C         -0.73533       -2.93575       -0.28403
C         -1.55901       -2.00719       -0.87747
C         -2.28987       -2.33177       -1.99601
C         -2.18044       -3.59931       -2.53748
H         -1.23999       -5.50953       -2.38603
C          0.32614       -5.19377       -0.20550
H         -0.18124       -2.67048        0.59984
H         -2.92555       -1.58769       -2.44965
H         -2.74268       -3.85813       -3.41966
C         -5.59438        0.32093        1.99352
C         -5.47807       -0.71784        1.09118
C         -4.28399       -0.92311        0.42616
C         -3.21652       -0.09027        0.66757
C         -3.32990        0.94418        1.56792
C         -4.52449        1.16986        2.24085
H         -6.52036        0.47660        2.52043
H         -6.31525       -1.37165        0.90916
H         -4.17690       -1.73574       -0.27328
H         -2.47850        1.57411        1.76747
C         -4.62836        2.26675        3.24108
C          5.14679       -1.12996        2.35294
C          5.20718        0.11342        1.75501
C          4.14273        0.56801        0.99969
C          3.02798       -0.22247        0.84775
C          2.96420       -1.46008        1.44617
C          4.02766       -1.93700        2.20226
H          5.97070       -1.48219        2.94992
H          6.08034        0.73220        1.88210
H          4.17194        1.54060        0.53665
H          2.07848       -2.06306        1.33383
C          3.93877       -3.26233        2.87313
C          1.98635        4.76022       -1.18700
C          2.80391        3.83283       -1.80292
C          2.70424        2.49509       -1.46791
C          1.79098        2.10092       -0.51862
C          0.98366        3.02267        0.10624
C          1.07041        4.37074       -0.21935
H          2.05194        5.80044       -1.45697
H          3.51239        4.14924       -2.55079
H          3.32112        1.75389       -1.95156
H          0.27378        2.69496        0.84689
C          0.16225        5.36156        0.41894
Pd        -0.03332       -0.06296        1.46621
C          0.88332        1.97152       -4.26640
C         -0.76773       -0.93493       -4.66954
H          1.60604        1.17335       -4.09388
H          0.44938        1.82668       -5.25643
H          1.43261        2.91398       -4.27614
H         -1.32010       -1.84309       -4.91479
H         -1.49139       -0.19191       -4.33271
H         -0.30656       -0.56573       -5.58635
H          1.33570       -5.05902       -0.59653
H          0.36697       -5.07347        0.87811
H          0.01688       -6.21879       -0.41437
H         -4.06034        3.14209        2.92258
H         -5.66457        2.57688        3.38287
H         -4.23698        1.94532        4.20726
H          4.92927       -3.68474        3.04780
H          3.43483       -3.17363        3.83655
H          3.37752       -3.97282        2.26426
H          0.63995        6.33890        0.50022
H         -0.75189        5.47967       -0.16459
H         -0.11940        5.04525        1.42437
