100
-131.96410086
C         -3.16952       -2.79521       -1.49369
C         -2.01963       -3.39723       -0.81141
C         -2.82027       -1.47137       -1.86921
C         -1.41848       -1.18972       -1.43285
C         -0.57298       -0.31524       -2.31418
C         -0.93771       -2.46028       -0.77980
C          0.44443       -2.85924       -0.28815
C          1.04018       -3.97715       -1.11882
Cl        -0.46564        1.42201        2.65976
Cl         0.45018       -1.64700        2.67439
C          0.69823        1.27162       -4.25467
C          0.24149        0.01130       -4.58668
C          0.53354        1.74109       -2.95954
C         -0.38972       -0.75974       -3.64264
C         -0.06397        0.96457       -1.99551
H         -1.96855       -4.42456       -0.44498
H         -3.42922       -0.80787       -2.48763
H          1.21337       -3.64712       -2.14444
H          1.99053       -4.32189       -0.70649
H          0.37031       -4.83920       -1.16599
H          1.18123        1.88673       -4.99608
H          0.36754       -0.35993       -5.59084
H          0.87809        2.73159       -2.70623
H         -0.77293       -1.72933       -3.91152
H         -4.11331       -3.29808       -1.72048
P         -0.12814        1.71541       -0.36115
H          0.32115       -3.20732        0.74627
P          1.67903       -1.48215       -0.11902
H          1.74083       -1.47961       -2.53214
C          3.83860       -1.31182       -2.07467
C          2.36615       -1.01337       -1.77174
C          4.08142       -2.79435       -2.35947
H          3.55285       -2.81865        0.51403
C          3.97246       -0.94791        1.52607
C          3.00327       -2.03695        1.03843
H          4.13188       -0.24224        0.69310
C          3.41471       -0.15829        2.71323
H          1.09483        3.75200       -0.77454
H         -1.93557        2.67343        0.89846
C         -4.20213        2.55836       -0.77572
C         -2.84393        1.83857       -0.88205
C         -1.73253        2.62390       -0.17847
C         -1.63938        4.04785       -0.74968
C         -2.99305        4.78259       -0.66153
C         -4.10787        3.98017       -1.35811
H         -4.49861        2.61917        0.27866
H         -4.99238        1.97932       -1.27383
H         -2.57474        1.72299       -1.93971
H         -2.89234        0.81921       -0.48277
H         -0.85774        4.62132       -0.23468
H         -1.31808        3.98550       -1.79666
H         -3.25645        4.92841        0.39350
H         -2.91563        5.79306       -1.08689
H         -3.89406        3.91889       -2.43265
H         -5.07307        4.50032       -1.27932
C          3.80088        3.27316       -0.15591
C          2.63711        2.29459       -0.41654
C          1.27360        2.91876       -0.08484
C          1.26369        3.45684        1.35290
C          2.40044        4.46853        1.58547
C          3.76399        3.82162        1.28225
H          3.73782        4.10811       -0.86488
H          4.76566        2.78767       -0.36061
H          2.76511        1.39024        0.18689
H          2.65671        1.96369       -1.46160
H          0.28409        3.88471        1.60471
H          1.39610        2.61328        2.03969
H          2.25408        5.33549        0.92936
H          2.37026        4.86434        2.61029
H          3.94162        3.00084        1.98835
H          4.58218        4.53618        1.45057
H          4.43181       -1.02838       -1.18963
C          4.31888       -0.45879       -3.25381
H          2.53098       -2.52548        1.89095
C          5.32924       -1.55975        1.88986
H          2.19070        0.05598       -1.85926
H          5.13171       -2.98870       -2.58300
H          3.49922       -3.12005       -3.22207
H          3.80375       -3.42529       -1.51708
H          3.74427       -0.68894       -4.15165
H          4.20024        0.60733       -3.05365
H          5.37069       -0.64182       -3.47899
H          2.49471        0.36670        2.46431
H          3.19358       -0.82425        3.54760
H          4.13016        0.58502        3.06820
H          6.03866       -0.79653        2.21369
H          5.21994       -2.27507        2.70558
H          5.77107       -2.08953        1.04428
Fe        -2.68467       -1.73192        0.14937
C         -2.57540       -2.02243        2.20675
C         -3.60808       -2.85895        1.63156
C         -4.56845       -1.99371        0.97369
C         -4.13005       -0.62294        1.14480
C         -2.89771       -0.64093        1.90704
H         -1.68940       -2.37067        2.73803
H         -3.66206       -3.94812        1.69571
H         -5.48201       -2.31612        0.46871
H         -4.67823        0.26420        0.82205
H         -2.29834        0.22413        2.19446
Pd         0.34064       -0.01857        1.11221
