105
-153.07122296
Cl        -0.84612        2.05690       -2.90396
Pd         0.09044        1.54942       -0.92363
P          1.32780        0.73987        0.86949
N          0.61063       -0.49105        1.89351
C          0.01800       -1.72537        1.67263
C         -0.11686       -2.32505        0.39609
C         -0.83717       -3.53188        0.27153
C         -0.97947       -4.15328       -1.09742
C         -2.06504       -5.23696       -1.18760
C         -1.97509       -6.20121       -0.00137
C         -2.14340       -5.44917        1.32773
C         -1.37092       -4.15553        1.40160
C         -1.18821       -3.57047        2.64722
C         -0.51276       -2.38566        2.78036
H         -0.40727       -1.93321        3.75111
H         -1.60413       -4.05251        3.51578
H         -3.20444       -5.23067        1.49655
H         -2.72032       -7.00393       -0.09443
H         -3.05378       -4.76128       -1.19331
H         -1.18841       -3.35925       -1.82453
C          0.65636       -1.84989       -0.77809
C         -0.00148       -1.21432       -1.86597
C          0.71904       -0.99587       -3.04361
C          2.02541       -1.39468       -3.15793
C          2.67099       -2.05135       -2.11764
C          4.07503       -2.55053       -2.33556
C          4.40791       -3.76897       -1.46348
C          4.08198       -3.47702        0.00414
C          2.60290       -3.09521        0.19582
C          1.98834       -2.28185       -0.92212
H          2.00748       -4.00785        0.31800
H          4.71962       -2.65705        0.35247
H          5.46075       -4.06230       -1.58205
H          4.77760       -1.73758       -2.12214
H          2.56275       -1.21326       -4.07329
H          0.23535       -0.48804       -3.85936
N         -1.33441       -0.79065       -1.79557
P         -1.83028        0.21751       -0.43226
C         -2.80377       -0.73196        0.73441
C         -3.52254       -1.79647        0.24694
C         -4.32842       -2.52997        1.09887
C         -4.42480       -2.19016        2.44142
C         -3.69974       -1.10224        2.91044
C         -2.89818       -0.36727        2.05596
H         -2.34084        0.48089        2.41663
H         -3.76262       -0.83752        3.95210
C         -5.25078       -3.00783        3.37186
H         -4.88181       -3.37467        0.72585
H         -3.43879       -2.05315       -0.79731
C         -2.93951        1.52802       -0.96534
C         -2.88605        2.75732       -0.35135
C         -3.74228        3.76420       -0.75754
C         -4.66557        3.54092       -1.77009
C         -4.70593        2.29097       -2.37335
C         -3.84779        1.28497       -1.96703
H         -3.88410        0.31084       -2.42769
H         -5.41108        2.11136       -3.16682
C         -5.56517        4.63479       -2.23004
H         -3.69453        4.73374       -0.29189
H         -2.17039        2.92874        0.43702
H         -1.67410       -0.30757       -2.61728
H          0.80692       -0.23208        2.85286
C          1.28410        2.24620        1.84775
C          2.40620        3.01750        2.03443
C          2.32002        4.18817        2.76507
C          1.10792        4.59771        3.30492
C         -0.01276        3.80127        3.11081
C          0.07666        2.63021        2.38030
H         -0.79076        2.01157        2.21809
H         -0.95576        4.10413        3.53291
C          1.02094        5.84857        4.10830
H          3.19600        4.79548        2.91663
H          3.34219        2.70780        1.59926
C          3.05593        0.36362        0.58209
C          3.67758        0.70928       -0.59382
C          5.02703        0.45999       -0.75840
C          5.76634       -0.12719        0.25859
C          5.12674       -0.44888        1.44864
C          3.77417       -0.20393        1.60778
H          3.27383       -0.44842        2.53144
H          5.69129       -0.89686        2.24839
C          7.21631       -0.40532        0.06502
H          5.51785        0.72793       -1.67851
H          3.11116        1.19666       -1.36948
Cl         1.72345        3.07024       -1.17837
H         -1.84077       -6.08958        2.16616
H         -1.99534       -5.78229       -2.13941
H         -0.99904       -6.70253       -0.01537
H         -0.01070       -4.57334       -1.39248
H          4.34538       -4.33630        0.63671
H          2.47658       -2.54293        1.13488
H          4.21493       -2.78953       -3.39753
H          3.81927       -4.63076       -1.80247
H         -5.65852       -2.39589        4.17765
H         -6.08982       -3.47098        2.85075
H         -4.65382       -3.80263        3.82139
H         -6.50637        4.23678       -2.61182
H         -5.80210        5.31915       -1.41421
H         -5.09523        5.21169       -3.02767
H          1.71852        6.60175        3.73930
H          0.01861        6.27684        4.06373
H          1.25773        5.65400        5.15521
H          7.76476        0.51572       -0.13725
H          7.65529       -0.86765        0.95013
H          7.37226       -1.08230       -0.77624
