105
-153.06566455
Cl        -0.50039        1.87228       -3.04149
Pd         0.21649        1.31719       -0.97990
P          1.32189        0.52100        0.94701
N          1.18947       -1.04656        1.73953
C          0.21554       -2.03151        1.56930
C         -0.17358       -2.49443        0.28686
C         -1.15724       -3.49978        0.18604
C         -1.54225       -4.01142       -1.18176
C         -2.34686       -5.32035       -1.17151
C         -3.43313       -5.28590       -0.09285
C         -2.80859       -5.09290        1.29691
C         -1.73649       -4.03286        1.34114
C         -1.30344       -3.59422        2.58612
C         -0.34308       -2.62400        2.70103
H         -0.02687       -2.28667        3.67265
H         -1.74108       -4.02420        3.47116
H         -3.58504       -4.84067        2.03058
H         -4.12426       -4.45919       -0.30011
H         -2.78565       -5.51778       -2.15979
H         -2.12214       -3.23207       -1.68916
C          0.59212       -2.09419       -0.91811
C         -0.08117       -1.50650       -2.02316
C          0.62904       -1.31528       -3.21190
C          1.95096       -1.66283       -3.30901
C          2.62962       -2.22885       -2.23693
C          4.07346       -2.62156       -2.44070
C          4.81271       -3.00789       -1.14975
C          3.92376       -3.87450       -0.25426
C          2.64090       -3.12095        0.12579
C          1.94995       -2.45039       -1.03702
H          1.93524       -3.80401        0.61495
H          4.46984       -4.19767        0.64334
H          5.09757       -2.09992       -0.60398
H          4.59509       -1.79903       -2.94588
H          2.48116       -1.49961       -4.23206
H          0.12769       -0.85873       -4.04722
N         -1.40749       -1.05769       -1.94136
P         -1.78516        0.13326       -0.69672
C         -2.50922       -0.45691        0.82122
C         -3.55523       -1.34660        0.79351
C         -4.15037       -1.73543        1.98037
C         -3.70976       -1.22160        3.19343
C         -2.65933       -0.31313        3.19406
C         -2.06654        0.07460        2.00658
H         -1.25209        0.77872        1.99539
H         -2.30406        0.08416        4.12933
C         -4.32017       -1.67368        4.47375
H         -4.95967       -2.44528        1.97109
H         -3.89816       -1.73197       -0.15357
C         -2.86759        1.42948       -1.30791
C         -2.79907        2.68068       -0.74156
C         -3.62789        3.68792       -1.20127
C         -4.53832        3.44356       -2.22050
C         -4.59390        2.17202       -2.77563
C         -3.76349        1.16585       -2.31591
H         -3.81598        0.17510       -2.73722
H         -5.29003        1.97526       -3.57301
C         -5.40859        4.53636       -2.73617
H         -3.56907        4.67347       -0.77194
H         -2.09465        2.86674        0.05443
H         -1.75368       -0.63112       -2.79097
H          1.65132       -0.97178        2.63712
C          0.95553        1.81063        2.14995
C          0.57919        1.46430        3.42718
C          0.27216        2.44710        4.35020
C          0.33890        3.78875        4.00101
C          0.73726        4.12197        2.71409
C          1.04098        3.13563        1.79578
H          1.35110        3.39360        0.79772
H          0.80839        5.15961        2.43581
C          0.03059        4.85050        4.99858
H         -0.02421        2.17651        5.34929
H          0.50632        0.42447        3.69751
C          3.06427        0.66308        0.53627
C          3.51457        0.43553       -0.74092
C          4.86210        0.54931       -1.02766
C          5.77233        0.86463       -0.02889
C          5.29955        1.08763        1.25719
C          3.94862        0.98549        1.53805
H          3.57816        1.15976        2.53612
H          5.99506        1.34696        2.03698
C          7.22128        1.00172       -0.34273
H          5.21523        0.39862       -2.03331
H          2.80560        0.18680       -1.51389
Cl         1.92385        2.77771       -1.20406
H         -2.37632       -6.03971        1.64205
H         -1.66994       -6.16173       -0.97705
H         -4.04562       -6.19811       -0.12542
H         -0.63132       -4.13636       -1.78067
H          3.65959       -4.79648       -0.78725
H          2.87794       -2.35543        0.87325
H          4.10548       -3.46094       -3.14567
H          5.75716       -3.52212       -1.37733
H         -4.27775       -0.88784        5.22920
H         -5.36786       -1.94492        4.33656
H         -3.79513       -2.54601        4.86544
H         -5.67059        5.23806       -1.94303
H         -4.90218        5.09381       -3.52527
H         -6.33801        4.13987       -3.14728
H         -0.39256        5.73261        4.51593
H         -0.69148        4.49962        5.73723
H          0.93303        5.15725        5.52910
H          7.44988        2.01368       -0.67967
H          7.83652        0.79114        0.53315
H          7.51960        0.30878       -1.13082
