72
-108.39736208
Cl         1.85712       -0.24858        2.81165
Cl        -0.79973        1.34833        2.73184
P         -1.22452        1.00254       -0.30640
P          2.21793       -0.20008       -0.37720
C          3.39315        1.28471       -0.25502
C          4.10634        1.24311        1.09313
C          4.42618        1.26586       -1.39019
C          3.12706       -1.86011       -0.13310
C          4.48615       -1.82034       -0.82347
C          1.42636       -0.35561       -2.07900
C          1.33899        0.91266       -2.90969
C         -1.15618       -0.30123       -1.57115
C          0.05070       -1.00274       -2.01399
C         -0.39070       -2.12750       -2.84141
C         -1.83838       -2.10039       -2.92143
C         -2.30858       -0.96647       -2.14953
C          2.56143        2.56392       -0.32387
H          4.73558        2.12533        1.22214
H          3.39154        1.22565        1.91533
H          4.82162        2.26700       -1.56959
H          4.00576        0.89961       -2.32415
C          3.30946       -2.16958        1.34761
H          5.18235       -1.17367       -0.29258
H          4.39584       -1.47638       -1.85418
H          2.10136       -1.04501       -2.59912
H          0.64706        1.61687       -2.45620
H          0.94761        0.69621       -3.90567
H          2.29565        1.41357       -3.04191
H          0.26508       -2.79725       -3.40083
H         -2.46363       -2.79163       -3.49067
Pd         0.51553        0.42673        1.14429
H         -3.34772       -0.68111       -1.97361
C          2.28541       -2.96300       -0.77056
H          4.93331       -2.81557       -0.84617
H          2.34714       -2.28380        1.84405
H          3.86189       -3.10043        1.48478
H          3.85792       -1.38171        1.86048
H          1.25234       -2.89043       -0.44483
H          2.30214       -2.91054       -1.85880
H          2.65878       -3.94986       -0.49127
H          4.75116        0.37058        1.18074
H          5.28058        0.63548       -1.14935
H          2.01295        2.64725       -1.25870
H          1.84581        2.61337        0.49624
H          3.20142        3.44431       -0.24441
C         -2.91678        1.05918        0.33513
C         -3.39973        2.05270        1.14956
C         -4.73024        1.74222        1.43076
C         -5.00644        0.56977        0.77168
O         -3.90228        0.13974        0.09407
H         -2.84489        2.90409        1.50862
H         -5.40763        2.31087        2.04669
H         -5.95583        0.04868        0.77868
C         -0.81654        2.65450       -0.89353
C         -0.54451        3.67188       -0.01370
C         -0.26808        4.80831       -0.77500
C         -0.38516        4.43444       -2.09174
O         -0.71953        3.11283       -2.17930
H         -0.53853        3.58545        1.06149
H         -0.01339        5.78688       -0.40217
H         -0.23628        5.08050       -2.94807
Fe        -1.22029       -2.23934       -0.95768
C         -2.89168       -2.69104        0.15729
C         -1.91894       -1.95994        0.94457
C         -0.69321       -2.72865        0.97775
C         -0.89421       -3.91798        0.16902
C         -2.25879       -3.90399       -0.32651
H         -3.92201       -2.37914       -0.02732
H         -2.09591       -1.02368        1.47796
H          0.19612       -2.46601        1.55251
H         -0.17295       -4.72566        0.02380
H         -2.73059       -4.67623       -0.93816
