87
-129.18665647
P         -1.56115       -0.29174       -0.34874
P          1.68784        0.37375        0.06174
C         -1.21696        0.97479       -1.57644
C          1.53056       -0.69700       -1.38708
C         -0.16541        0.80361       -2.46851
C          0.09847        1.81887       -3.40955
C         -0.70392        2.94768       -3.42756
C         -1.74568        3.09527       -2.53644
C         -1.99854        2.10359       -1.60952
C          2.27021       -1.85564       -1.36396
C          2.15273       -2.78444       -2.37886
C          1.27438       -2.55332       -3.41438
C          0.51102       -1.39965       -3.45719
C          0.64857       -0.44061       -2.43484
Cl         1.16686        0.19611        3.23468
Cl        -1.51821       -1.61418        2.57308
H         -2.35693        3.98254       -2.55918
H         -2.81197        2.20958       -0.91129
H          2.94301       -2.03963       -0.54289
H          2.73646       -3.69003       -2.35424
H         -0.49902        3.72132       -4.14799
H          1.16726       -3.28001       -4.20184
C         -2.14549       -4.32364       -2.35270
C         -1.26398       -4.21885       -1.28544
C         -1.11015       -2.98153       -0.67220
C         -1.82038       -1.89040       -1.11537
C         -2.69899       -2.00339       -2.16703
C         -2.86460       -3.22764       -2.78794
H         -2.26210       -5.27458       -2.84395
C         -0.45938       -5.38766       -0.83787
H         -0.42351       -2.87313        0.15035
H         -3.23712       -1.13171       -2.50530
H         -3.54687       -3.32309       -3.61667
C         -5.17095        0.91915        2.15577
C         -5.23078       -0.21673        1.37264
C         -4.14185       -0.58313        0.60447
C         -3.00337        0.18751        0.62409
C         -2.94051        1.31711        1.40722
C         -4.02744        1.70562        2.17994
H         -6.01495        1.20129        2.76183
H         -6.12289       -0.82131        1.36501
H         -4.17050       -1.47382       -0.00133
H         -2.03919        1.90580        1.42281
C         -3.93986        2.91379        3.04444
C          5.60461       -0.47164        2.22657
C          5.46467        0.68004        1.47774
C          4.27468        0.93644        0.82290
C          3.23412        0.04250        0.92263
C          3.37243       -1.10608        1.66764
C          4.56332       -1.38374        2.32757
H          6.52701       -0.66877        2.74584
H          6.28024        1.38098        1.40704
H          4.14982        1.83458        0.24058
H          2.54204       -1.78701        1.75771
C          4.69208       -2.60759        3.16430
C          1.10186        4.81331       -0.70848
C          1.98068        4.09500       -1.49574
C          2.17575        2.74682       -1.25934
C          1.48992        2.13177       -0.23880
C          0.63781        2.85138        0.56700
C          0.42499        4.20523        0.33984
H          0.93463        5.85894       -0.90321
H          2.50401        4.58109       -2.30271
H          2.84220        2.16587       -1.87695
H          0.14776        2.36344        1.39162
C         -0.54536        4.96700        1.17181
Pd        -0.05267       -0.35379        1.43661
C          1.22230        1.70778       -4.38045
C         -0.44235       -1.20493       -4.58511
H          1.79897        2.63321       -4.41481
H          1.90756        0.90391       -4.10936
H          0.84915        1.50835       -5.38571
H         -0.99054       -2.12490       -4.79299
H         -1.17665       -0.43093       -4.35972
H          0.08511       -0.91626       -5.49502
H         -0.23721       -5.32555        0.22845
H         -0.99252       -6.32337       -1.01166
H          0.48813       -5.43342       -1.37665
H         -3.41304        3.72181        2.53472
H         -4.93089        3.28180        3.31356
H         -3.40143        2.69013        3.96646
H          4.15086       -3.44435        2.72020
H          5.73579       -2.90647        3.27099
H          4.28606       -2.43648        4.16223
H         -1.54342        4.92840        0.73283
H         -0.60552        4.55588        2.18061
H         -0.25411        6.01478        1.25738
