72
-108.39837048
Cl         1.74991       -0.80132        2.70827
Cl        -1.08695        0.40750        2.74196
P         -1.10915        1.16705       -0.26760
P          2.27498       -0.11834       -0.36569
C          3.29965        1.45603       -0.09374
C          3.64635        1.57341        1.39159
C          4.56908        1.39650       -0.93554
C          3.31635       -1.69503       -0.14945
C          4.12641       -1.97817       -1.42023
C          1.44463       -0.35152       -2.04616
C          1.49908        0.86517       -2.94513
C         -1.13860       -0.16857       -1.49714
C          0.02708       -0.90279       -1.98707
C         -0.47811       -1.96406       -2.86149
C         -1.92407       -1.86189       -2.92519
C         -2.32972       -0.75187       -2.08382
C          2.47751        2.67977       -0.47845
H          2.74782        1.57478        2.00882
H          4.28511        0.76345        1.73294
H          5.12151        2.33481       -0.86313
H          4.34186        1.22712       -1.98746
C          4.26864       -1.60760        1.03910
H          4.65691       -1.09390       -1.76851
H          3.49909       -2.34022       -2.23391
H          2.05150       -1.13207       -2.51448
H          0.89340        1.67058       -2.53457
H          1.09251        0.63969       -3.93335
H          2.51669        1.22913       -3.08650
H          0.14049       -2.64143       -3.45370
H         -2.58855       -2.49443       -3.51785
Pd         0.51716        0.25230        1.15231
H         -3.35111       -0.42037       -1.88506
C          2.31784       -2.81826        0.08029
H          4.86886       -2.75580       -1.23326
H          3.74490       -1.32585        1.95022
H          4.73744       -2.57540        1.22296
H          5.07270       -0.89661        0.85856
H          1.80535       -2.68423        1.03202
H          1.57350       -2.84613       -0.71677
H          2.81894       -3.78800        0.10846
H          4.17969        2.50491        1.58818
H          5.23602        0.60430       -0.59974
H          1.51747        2.67787        0.03498
H          2.99568        3.59743       -0.19547
H          2.30118        2.73810       -1.54938
C         -2.74831        1.29117        0.47268
C         -3.12485        2.35018        1.25920
C         -4.43945        2.10986        1.66188
C         -4.80914        0.91243        1.09883
O         -3.77967        0.39984        0.36264
H         -2.50663        3.19707        1.51300
H         -5.04415        2.73939        2.29403
H         -5.77217        0.43024        1.21306
C         -0.77641        2.78171       -0.98868
C         -1.15292        3.11990       -2.26444
C         -0.75249        4.44129       -2.46948
C         -0.15347        4.85486       -1.30441
O         -0.16209        3.84443       -0.38505
H         -1.66579        2.47787       -2.96324
H         -0.89137        5.02458       -3.36506
H          0.26905        5.83559       -1.12427
Fe        -1.27222       -2.11256       -0.98960
C         -2.96373       -2.83978       -0.09994
C         -2.21105       -2.04483        0.85034
C         -0.89983       -2.63856        0.98842
C         -0.83570       -3.79529        0.11464
C         -2.12070       -3.93474       -0.54525
H         -3.99866       -2.66081       -0.40080
H         -2.56263       -1.14836        1.36306
H         -0.12429       -2.28708        1.67087
H          0.00128       -4.49175        0.02937
H         -2.40450       -4.72382       -1.24527
