72
-98.09766215
Fe        -0.04629        2.82866       -0.05575
P          1.84797        0.01162        0.02770
P         -1.82780       -0.06710        0.14603
C          1.43645        1.67431        0.68278
C          0.46213        1.95615        1.71968
C          0.37778        3.39547        1.88992
C          1.30784        4.00615        0.95837
C          1.98378        2.94498        0.23159
C         -1.40437        1.50497       -0.69413
C         -2.03494        2.79642       -0.46905
C         -1.37540        3.77430       -1.31803
C         -0.34591        3.08522       -2.07492
C         -0.37807        1.68126       -1.70653
C          3.11409       -0.73868        1.15475
C          4.37674        0.04636        0.76123
C          2.99742        0.26721       -1.42028
C          4.37517        0.45981       -0.74145
C         -3.30245       -0.77320       -0.72569
C         -4.46779       -0.06433       -0.01584
C         -2.65338        0.33084        1.77064
C         -4.16421        0.18459        1.48462
H         -0.08490        1.20739        2.28973
H         -0.26333        3.92240        2.60015
H          1.49486        5.07686        0.84904
H          2.74698        3.07890       -0.53729
H         -2.86454        2.99091        0.21417
H          0.26571        0.89592       -2.10121
Cl         1.65258       -2.99980       -0.50770
Cl        -1.47129       -3.15730       -0.19309
Pd         0.03866       -1.48624       -0.05756
H          3.21539       -1.79232        0.86994
C          2.75858       -0.62473        2.63404
H          2.66971        1.18557       -1.92206
C          3.02403       -0.88281       -2.42646
H          5.28036       -0.53129        1.01051
H          4.42780        0.94682        1.39092
H          4.71453        1.50065       -0.85004
H          5.12126       -0.13698       -1.28482
H         -1.62004        4.83681       -1.38448
H          0.31913        3.53768       -2.81413
H          3.65233       -0.85042        3.23232
H          3.87718       -0.73900       -3.10403
H         -3.32479       -1.84687       -0.50851
C         -3.28328       -0.53903       -2.23243
H         -2.41108        1.38734        1.94517
C         -2.18118       -0.51287        2.95767
H         -5.39836       -0.63956       -0.14038
H         -4.64853        0.89616       -0.51924
H         -4.70732        1.07103        1.84493
H         -4.56438       -0.64657        2.07840
H         -4.26178       -0.81612       -2.64886
H         -2.73302       -0.19401        3.85282
C          1.61680       -1.53562        3.05267
H          1.84904       -2.58181        2.84499
H          1.39283       -1.45202        4.11856
H          0.70387       -1.29787        2.50875
C          1.75432       -1.03428       -3.24505
H          1.83605       -1.83825       -3.98015
H          0.90435       -1.27155       -2.60816
H          1.51766       -0.11734       -3.78790
C         -2.18161       -1.30117       -2.94664
H         -1.20161       -0.99004       -2.58874
H         -2.26295       -2.37495       -2.76821
H         -2.20173       -1.14121       -4.02700
C         -2.33830       -2.01397        2.77439
H         -1.99618       -2.56998        3.65043
H         -3.37540       -2.29985        2.59597
H         -1.75995       -2.37026        1.92376
H          2.51739        0.42174        2.86108
H          3.24268       -1.81286       -1.88699
H         -3.18415        0.53785       -2.42189
H         -1.13288       -0.28328        3.17996
