87
-129.18522549
P         -1.55221       -0.27897       -0.36356
P          1.70104        0.37473        0.09783
C         -1.19293        0.97739       -1.59694
C          1.54598       -0.70288       -1.34870
C         -0.13107        0.79062       -2.47292
C          0.14292        1.78793       -3.43029
C         -0.66003        2.91560       -3.47823
C         -1.71179        3.07907       -2.60148
C         -1.97530        2.10434       -1.65966
C          2.27428       -1.86826       -1.30056
C          2.15791       -2.81289       -2.30096
C          1.29053       -2.59171       -3.34757
C          0.53789       -1.43238       -3.41588
C          0.67621       -0.45656       -2.40968
Cl         1.18135        0.02540        3.25308
Cl        -1.55153       -1.70436        2.46876
H         -2.32351        3.96508       -2.64799
H         -2.79881        2.22082       -0.97508
H          2.93666       -2.04582       -0.46963
H          2.73238       -3.72358       -2.25536
H         -0.44795        3.67558       -4.21101
H          1.18241       -3.33127       -4.12282
C         -2.25645       -4.28407       -2.38396
C         -1.34003       -4.20128       -1.34454
C         -1.15955       -2.97518       -0.71643
C         -1.85603       -1.86658       -1.13740
C         -2.75489       -1.95331       -2.17437
C         -2.96071       -3.17023       -2.79769
H         -2.41359       -5.23220       -2.86932
C         -0.58663       -5.39989       -0.88670
H         -0.46376       -2.88972        0.10112
H         -3.28127       -1.06835       -2.49630
H         -3.66517       -3.24685       -3.60962
C         -5.13315        1.02766        2.13469
C         -5.21101       -0.12528        1.37846
C         -4.12971       -0.52454        0.61596
C         -2.98245        0.23310        0.61077
C         -2.90151        1.37931        1.36744
C         -3.97480        1.79237        2.14631
H         -5.97529        1.34154        2.72758
H         -6.11246       -0.71586        1.38500
H         -4.17268       -1.42830        0.03072
H         -1.99808        1.96435        1.35258
C         -3.88376        3.04397        2.94635
C          5.69783       -0.35154        2.15769
C          5.51082        0.78194        1.39160
C          4.29544        1.00198        0.77096
C          3.27620        0.09065        0.92222
C          3.46204       -1.04016        1.68377
C          4.67879       -1.28141        2.31001
H          6.64022       -0.52052        2.65029
H          6.30962        1.49679        1.28038
H          4.13465        1.88507        0.17459
H          2.64831       -1.73443        1.81486
C          4.85918       -2.48550        3.16569
C          0.96467        4.80489       -0.59825
C          1.83397        4.12109       -1.42575
C          2.07504        2.77639       -1.21379
C          1.44333        2.12969       -0.17809
C          0.60423        2.81634        0.66934
C          0.34511        4.16607        0.46712
H          0.76135        5.84755       -0.77358
H          2.31333        4.63096       -2.24525
H          2.73508        2.22217       -1.86196
H          0.16706        2.30721        1.51095
C         -0.61169        4.89138        1.34618
Pd        -0.05713       -0.38923        1.43470
C          1.27647        1.65798       -4.38733
C         -0.40812       -1.25102       -4.55229
H          0.91359        1.43628       -5.39170
H          1.85208        2.58345       -4.43603
H          1.96004        0.86114       -4.09219
H         -1.14302       -0.47352       -4.34131
H          0.12521       -0.97477       -5.46259
H         -0.95637       -2.17290       -4.75148
H          0.40579       -5.12403       -0.52679
H         -1.11290       -5.90020       -0.07267
H         -0.45666       -6.11804       -1.69755
H         -4.62525        3.05769        3.74630
H         -2.89920        3.14166        3.40620
H         -4.05049        3.91936        2.31705
H          4.49158       -2.29904        4.17568
H          4.31263       -3.33880        2.76143
H          5.91062       -2.76770        3.23561
H         -1.62941        4.80529        0.96260
H         -0.59831        4.48654        2.35917
H         -0.36350        5.95172        1.40957
