72
-108.40072415
Cl         1.75661       -0.77321        2.76271
Cl        -1.08623        0.42538        2.75337
P         -1.08848        1.15103       -0.26277
P          2.24968       -0.08529       -0.39203
C          3.25692        1.50686       -0.17045
C          3.61939        1.67652        1.30658
C          4.51955        1.44600       -1.02250
C          3.31291       -1.63866       -0.10978
C          4.12656       -1.96464       -1.36898
C          1.45429       -0.39472       -2.07485
C          1.52739        0.75877       -3.05377
C         -1.11996       -0.18114       -1.49916
C          0.03482       -0.92596       -1.99900
C         -0.48676       -1.99199       -2.85592
C         -1.93193       -1.88061       -2.90160
C         -2.32145       -0.74890       -2.08233
C          2.40315        2.69887       -0.57907
H          2.73138        1.65741        1.93834
H          4.29775        0.90410        1.65824
H          5.05771        2.39428       -0.97854
H          4.28882        1.24582       -2.06770
C          4.26868       -1.48936        1.06978
H          4.89413       -2.70733       -1.14499
H          4.62710       -1.08381       -1.76718
H          2.05941       -1.20868       -2.48452
H          1.18117        0.45352       -4.04339
H          2.53914        1.14605       -3.16737
H          0.87403        1.56810       -2.73688
H          0.11981       -2.68163       -3.44575
H         -2.60661       -2.51124       -3.48496
Pd         0.53548        0.25780        1.18762
H         -3.33789       -0.40257       -1.88354
C          2.32898       -2.76503        0.16791
H          3.50838       -2.39061       -2.15844
H          3.74857       -1.16239        1.96749
H          4.74047       -2.44557        1.30060
H          5.07061       -0.78710        0.84946
H          1.82083       -2.60410        1.11769
H          1.57925       -2.83079       -0.62188
H          2.84200       -3.72704        0.22734
H          4.11669        2.63393        1.47050
H          5.20147        0.67299       -0.67209
H          2.15885        2.68762       -1.63799
H          1.47741        2.71479       -0.00661
H          2.92651        3.63611       -0.38214
C         -2.75636        1.25174        0.43876
C         -3.16478        2.18397        1.36010
C         -4.50162        1.91357        1.65229
C         -4.85652        0.82626        0.89295
O         -3.79466        0.41032        0.14306
H         -2.55564        2.95887        1.79528
H         -5.13086        2.45009        2.34353
H         -5.83078        0.35343        0.88094
C         -0.71258        2.76251       -0.97777
C         -0.66913        3.92512       -0.24805
C         -0.35434        4.95412       -1.13663
C         -0.21911        4.37522       -2.37448
O         -0.43235        3.02880       -2.29013
H         -0.83018        4.01677        0.81385
H         -0.23981        5.99881       -0.89774
H          0.02335        4.89545       -3.29282
Fe        -1.31431       -2.09737       -0.96143
C         -3.02887       -2.83813       -0.05421
C         -2.23980       -2.01932        0.84541
C         -0.93085       -2.62130        0.98544
C         -0.88395       -3.78844        0.12490
C         -2.17663       -3.91538       -0.52430
H         -4.06661       -2.65798       -0.34274
H         -2.58477       -1.12513        1.36757
H         -0.15029       -2.27206        1.66357
H         -0.04917       -4.48622        0.02883
H         -2.47261       -4.71177       -1.21084
