105
-153.07230726
Cl        -0.86569        2.01667       -2.87308
Pd         0.10201        1.52731       -0.90119
P          1.34169        0.72261        0.89091
N          0.64337       -0.52694        1.90624
C          0.03512       -1.75093        1.66905
C         -0.10265       -2.33265        0.38479
C         -0.84068       -3.52542        0.23865
C         -0.97867       -4.12412       -1.14195
C         -1.52616       -5.55999       -1.16605
C         -2.68783       -5.72388       -0.18172
C         -2.23410       -5.40082        1.24980
C         -1.41547       -4.13901        1.35351
C         -1.22222       -3.57951        2.60945
C         -0.51344       -2.41676        2.76485
H         -0.40174       -1.98176        3.74285
H         -1.65563       -4.06372        3.46818
H         -3.10393       -5.31427        1.91365
H         -3.50284       -5.04737       -0.46784
H         -1.83523       -5.84286       -2.18222
H         -1.62954       -3.47144       -1.73549
C          0.66980       -1.84693       -0.78424
C          0.00188       -1.22967       -1.87677
C          0.72011       -1.00672       -3.05503
C          2.03264       -1.38632       -3.16590
C          2.68687       -2.02918       -2.12222
C          4.09610       -2.51438       -2.33784
C          4.43615       -3.73341       -1.46937
C          4.10805       -3.44764       -0.00096
C          2.62714       -3.07318        0.19169
C          2.00704       -2.26333       -0.92577
H          2.03630       -3.98893        0.31376
H          4.74180       -2.62599        0.35037
H          5.49073       -4.02015       -1.58859
H          4.79075       -1.69629       -2.11837
H          2.56782       -1.20210       -4.08195
H          0.22947       -0.51103       -3.87409
N         -1.33675       -0.82303       -1.80703
P         -1.83654        0.20228       -0.45847
C         -2.79033       -0.71995        0.74694
C         -3.55382       -1.76967        0.29643
C         -4.34986       -2.47149        1.18382
C         -4.39248       -2.11485        2.52478
C         -3.62327       -1.04219        2.95637
C         -2.83140       -0.33909        2.06684
H         -2.23914        0.49620        2.39996
H         -3.64405       -0.76438        3.99632
C         -5.20938       -2.89820        3.49201
H         -4.93883       -3.30441        0.84014
H         -3.51629       -2.03808       -0.74746
C         -2.95957        1.49577       -1.00419
C         -2.91655        2.73364       -0.40684
C         -3.78543        3.72582       -0.82234
C         -4.71090        3.47938       -1.82745
C         -4.74053        2.22123       -2.41407
C         -3.86972        1.23004       -1.99851
H         -3.89784        0.24954       -2.44604
H         -5.44746        2.02343       -3.20161
C         -5.62431        4.55766       -2.29689
H         -3.74606        4.70193       -0.36981
H         -2.19972        2.92323        0.37618
H         -1.68534       -0.35613       -2.63427
H          0.83622       -0.27671        2.86861
C          1.29397        2.22325        1.87832
C          2.42793        2.96177        2.11910
C          2.34374        4.12882        2.85572
C          1.12370        4.56184        3.35802
C         -0.01227        3.80877        3.09329
C          0.07541        2.64131        2.35693
H         -0.80329        2.05596        2.14258
H         -0.96626        4.14440        3.46262
C          1.02777        5.83489        4.12451
H          3.22727        4.71603        3.03922
H          3.37250        2.63101        1.71962
C          3.07175        0.36943        0.58471
C          3.67824        0.72935       -0.59487
C          5.03002        0.50209       -0.77185
C          5.78827       -0.07194        0.23925
C          5.16168       -0.41688        1.42919
C          3.80684       -0.19395        1.60078
H          3.31771       -0.45264        2.52661
H          5.73949       -0.86647        2.21858
C          7.23590       -0.35304        0.03433
H          5.50648        0.77684       -1.69744
H          3.09783        1.20994       -1.36436
Cl         1.70696        3.07545       -1.15698
H         -1.64291       -6.23424        1.64760
H         -0.72413       -6.25926       -0.89809
H         -3.11057       -6.73688       -0.24067
H         -0.00190       -4.09026       -1.64066
H          4.37510       -4.30777        0.62894
H          2.49838       -2.52190        1.13094
H          4.24191       -2.74773       -3.40025
H          3.85265       -4.59765       -1.81104
H         -5.59521       -2.26015        4.28829
H         -6.06300       -3.36598        2.99951
H         -4.61255       -3.68715        3.95184
H         -6.55480        4.14379       -2.68795
H         -5.88086        5.23793       -1.48357
H         -5.15625        5.14229       -3.08998
H          1.95012        6.03603        4.67120
H          0.84285        6.67617        3.45522
H          0.21448        5.79710        4.85062
H          7.68650        0.37538       -0.64123
H          7.78256       -0.31200        0.97745
H          7.38017       -1.34523       -0.39572
