72
-98.10024312
Fe         0.00799        2.84677        0.04955
P          1.85610       -0.02998       -0.04248
P         -1.80003       -0.04181        0.02543
C          1.41768        1.57750        0.71231
C          0.41173        1.78138        1.73947
C          0.36820        3.19726        2.06001
C          1.35267        3.87389        1.23525
C          1.99855        2.87368        0.40103
C         -1.40759        1.61564       -0.66551
C         -1.99626        2.88151       -0.25159
C         -1.37516        3.94871       -1.01742
C         -0.39962        3.34697       -1.90658
C         -0.42618        1.91073       -1.69361
C          3.27644       -0.70707        0.94334
C          4.46641        0.04932        0.33107
C          2.79250        0.22492       -1.63249
C          4.27226        0.31438       -1.18705
C         -3.11344       -0.78595       -1.06381
C         -4.31552        0.10497       -0.70639
C         -2.93803        0.24137        1.47646
C         -4.30321        0.51352        0.79751
H         -0.19174        0.99750        2.19852
H         -0.28043        3.66665        2.80291
H          1.57589        4.94305        1.24649
H          2.79727        3.05422       -0.32184
H         -2.76895        3.00989        0.50878
H          0.18487        1.17754       -2.21580
Cl         1.63642       -3.08848       -0.16117
Cl        -1.57214       -3.07487        0.28431
Pd         0.03753       -1.51814        0.04071
H          3.34731       -1.77692        0.71714
C          3.14183       -0.49349        2.44707
H          2.45212        1.17556       -2.05957
C          2.56881       -0.91546       -2.62673
H          5.40511       -0.49400        0.52107
H          4.57347        1.00703        0.86092
H          4.69907        1.28955       -1.46463
H          4.85465       -0.42228       -1.75746
H         -1.60637        5.01360       -0.94170
H          0.23224        3.87786       -2.62234
H          4.09591       -0.74601        2.93028
H          3.36331       -0.88968       -3.38575
H         -3.29401       -1.80638       -0.70630
C         -2.75398       -0.80969       -2.55323
H         -2.56991        1.12717        2.00763
C         -3.01514       -0.94596        2.43407
H         -5.25953       -0.39432       -0.97499
H         -4.27226        1.00540       -1.33682
H         -4.58902        1.56963        0.90981
H         -5.08104       -0.04704        1.33485
H         -3.66749       -0.66263       -3.14615
H         -3.29750       -1.83890        1.86137
C          2.01710       -1.29989        3.06780
H          2.14255       -2.36769        2.87891
H          1.95385       -1.15806        4.14908
H          1.05880       -1.00785        2.64313
C          1.21718       -0.88820       -3.31741
H          1.09818        0.01189       -3.92358
H          1.07859       -1.74650       -3.97888
H          0.40608       -0.90227       -2.59151
C         -2.07671       -2.10464       -2.97997
H         -1.20218       -2.32108       -2.36670
H         -2.75119       -2.95562       -2.86740
H         -1.75464       -2.07729       -4.02330
C         -1.73869       -1.20676        3.21179
H         -1.85646       -2.02083        3.93074
H         -0.92884       -1.48863        2.54214
H         -1.42076       -0.32207        3.76639
H          2.99472        0.57697        2.64138
H          2.70860       -1.86724       -2.09764
H         -2.12257        0.05796       -2.78253
H         -3.84425       -0.78067        3.13626
