105
-153.06551218
Cl        -0.50922        1.85880       -3.05648
Pd         0.22990        1.32353       -0.99930
P          1.31185        0.52051        0.93947
N          1.18202       -1.04183        1.74257
C          0.21391       -2.03225        1.57369
C         -0.17307       -2.49813        0.29183
C         -1.15355       -3.50655        0.19170
C         -1.53723       -4.01921       -1.17611
C         -2.34136       -5.32848       -1.16598
C         -3.42624       -5.29596       -0.08582
C         -2.79996       -5.10379        1.30327
C         -1.73109       -4.04058        1.34719
C         -1.29963       -3.59935        2.59183
C         -0.34277       -2.62554        2.70597
H         -0.02822       -2.28575        3.67728
H         -1.73598       -4.02991        3.47723
H         -3.57587       -4.85521        2.03876
H         -4.11830       -4.46961       -0.29133
H         -2.78141       -5.52507       -2.15387
H         -2.11656       -3.24015       -1.68468
C          0.59220       -2.09836       -0.91358
C         -0.08137       -1.50902       -2.01759
C          0.62648       -1.32331       -3.20865
C          1.94679       -1.67650       -3.30825
C          2.62620       -2.24221       -2.23639
C          4.06864       -2.63900       -2.44179
C          4.80969       -3.02215       -1.15088
C          3.92114       -3.88396       -0.25031
C          2.63975       -3.12759        0.12925
C          1.94862       -2.45882       -1.03443
H          1.93359       -3.80865        0.62045
H          4.46847       -4.20414        0.64759
H          5.09751       -2.11285       -0.60893
H          4.59105       -1.81945       -2.95102
H          2.47535       -1.51731       -4.23294
H          0.12495       -0.86606       -4.04347
N         -1.40416       -1.05136       -1.93063
P         -1.76641        0.13455       -0.67667
C         -2.50851       -0.46672        0.82849
C         -3.55087       -1.35987        0.78185
C         -4.16030       -1.75761        1.95843
C         -3.73768       -1.24916        3.18011
C         -2.69091       -0.33663        3.19981
C         -2.08406        0.06013        2.02244
H         -1.27296        0.76811        2.02547
H         -2.34965        0.05683        4.14190
C         -4.36348       -1.71093        4.44951
H         -4.96679       -2.47031        1.93440
H         -3.87964       -1.74111       -0.17189
C         -2.84106        1.44331       -1.27635
C         -2.76163        2.68940       -0.70002
C         -3.58474        3.70622       -1.14864
C         -4.49181        3.47973       -2.17504
C         -4.57145        2.20829       -2.72740
C         -3.74668        1.19251       -2.27886
H         -3.81289        0.20362       -2.70260
H         -5.28376        2.01867       -3.51211
C         -5.39258        4.56853       -2.64467
H         -3.52566        4.68460       -0.70325
H         -2.05514        2.86313        0.09695
H         -1.75036       -0.61841       -2.77700
H          1.64105       -0.96057        2.64104
C          0.93692        1.81793        2.13136
C          0.56155        1.48189        3.41161
C          0.24620        2.47187        4.32407
C          0.30395        3.81033        3.96137
C          0.70274        4.13338        2.67198
C          1.01494        3.13995        1.76422
H          1.32758        3.39005        0.76486
H          0.76786        5.16861        2.38344
C         -0.01388        4.87929        4.94820
H         -0.04990        2.20948        5.32542
H          0.49589        0.44438        3.69258
C          3.05627        0.66388        0.53694
C          3.51449        0.42010       -0.73438
C          4.86311        0.53516       -1.01543
C          5.76661        0.86824       -0.01631
C          5.28591        1.10739        1.26391
C          3.93388        1.00379        1.53885
H          3.55735        1.19058        2.53235
H          5.97612        1.38054        2.04369
C          7.21665        1.00741       -0.32412
H          5.22226        0.37189       -2.01698
H          2.81058        0.15863       -1.50773
Cl         1.94684        2.76844       -1.23055
H         -2.36420       -6.04992        1.64591
H         -1.66382       -6.16978       -0.97338
H         -4.03805       -6.20863       -0.11844
H         -0.62564       -4.14426       -1.77401
H          3.65500       -4.80780       -0.77907
H          2.87809       -2.36068        0.87495
H          4.09729       -3.48103       -3.14373
H          5.75267       -3.53901       -1.37861
H         -5.40951       -1.98075        4.29761
H         -3.84338       -2.58643        4.84070
H         -4.33001       -0.93099        5.21151
H         -6.32155        4.57667       -2.07294
H         -4.91995        5.54542       -2.53358
H         -5.64617        4.44243       -3.69814
H          0.88092        5.18037        5.49464
H         -0.41989        5.76304        4.45400
H         -0.75307        4.53782        5.67422
H          7.52100        0.30962       -1.10559
H          7.44381        2.01757       -0.66740
H          7.82815        0.80520        0.55634
