72
-108.40290617
Cl         1.75318       -0.81799        2.70586
Cl        -1.02265        0.64841        2.74881
P         -1.12718        1.14580       -0.25348
P          2.27108       -0.11407       -0.38320
C          3.26829        1.48264       -0.14787
C          3.62756        1.63660        1.33141
C          4.53165        1.43695       -0.99962
C          3.34089       -1.66706       -0.13255
C          4.15560       -1.96187       -1.39815
C          1.44777       -0.40278       -2.05667
C          1.51220        0.76434       -3.01959
C         -1.13388       -0.18294       -1.49617
C          0.02717       -0.93457       -1.97371
C         -0.49140       -2.01683       -2.81344
C         -1.93434       -1.89345       -2.89614
C         -2.32852       -0.75685       -2.08687
C          2.41015        2.67578       -0.54594
H          2.73750        1.61485        1.96032
H          4.30071        0.85691        1.67722
H          5.21893        0.66628       -0.65453
H          5.06319        2.38860       -0.94836
C          4.29452       -1.53332        1.05052
H          3.53667       -2.35813       -2.20220
H          4.91646       -2.71703       -1.19388
H          2.04705       -1.21214       -2.48409
H          0.86687        1.57204       -2.68185
H          1.15112        0.47502       -4.00869
H          2.52451        1.14826       -3.14099
H          0.12080       -2.71532       -3.38756
H         -2.60333       -2.52979       -3.47972
Pd         0.52991        0.24845        1.15882
H         -3.34654       -0.40791       -1.90204
C          2.36505       -2.80601        0.12317
H          4.66471       -1.07395       -1.76844
H          3.77016       -1.22984        1.95423
H          4.77533       -2.48956        1.26182
H          5.08962       -0.81867        0.84578
H          1.86047       -2.66998        1.07858
H          1.61199       -2.85992       -0.66432
H          2.88476       -3.76557        0.15919
H          4.12863        2.59012        1.50625
H          4.30175        1.24330       -2.04641
H          2.92430        3.61293       -0.32577
H          2.18057        2.68243       -1.60824
H          1.47672        2.67573        0.01393
C         -2.80641        1.23806        0.42286
C         -3.25087        2.20332        1.29194
C         -4.58458        1.91370        1.57984
C         -4.90159        0.78183        0.87051
O         -3.81935        0.35702        0.15554
H         -2.66864        3.01652        1.69252
H         -5.23678        2.46765        2.23511
H         -5.86361        0.28441        0.86909
C         -0.73290        2.76061       -0.94963
C         -0.65809        3.90917       -0.20069
C         -0.33522        4.94717       -1.07586
C         -0.22672        4.38710       -2.32509
O         -0.46444        3.04361       -2.26102
H         -0.80137        3.98371        0.86521
H         -0.19731        5.98517       -0.82075
H          0.01426        4.91833       -3.23749
Fe        -1.31179       -2.11820       -0.95198
C         -2.99490       -2.76776       -0.00885
C         -2.17970       -1.98841        0.90224
C         -0.88294       -2.62234        0.99890
C         -0.88314       -3.78142        0.12542
C         -2.19614       -3.88271       -0.48731
H         -4.03407       -2.55744       -0.27262
H         -2.48861       -1.08796        1.43609
H         -0.07747       -2.29665        1.65917
H         -0.06708       -4.49816        0.00722
H         -2.52873       -4.66562       -1.17309
