171
-217.84605132
P         -1.59103        0.42825       -0.32070
P          1.61755       -0.32610       -0.23640
C         -0.81880        1.46988       -1.56887
C          0.96939       -1.21187       -1.65900
C          0.02878        0.93329       -2.53250
C          0.69504        1.80862       -3.41204
C          0.45869        3.17013       -3.32167
C         -0.40757        3.68019       -2.37838
C         -1.03727        2.82433       -1.49660
C          1.18746       -2.56472       -1.75031
C          0.66909       -3.28178       -2.81058
C         -0.07708       -2.63467       -3.77266
C         -0.30832       -1.27101       -3.69962
C          0.23574       -0.53732       -2.62762
Cl         1.55367        0.27250        2.93395
Cl        -1.71372       -0.23158        2.85190
C         -1.10483       -0.60341       -4.76554
C          1.65597        1.30400       -4.43144
H         -0.58668        4.74148       -2.32254
H         -1.70371        3.21679       -0.74608
H          1.77051       -3.06267       -0.99300
H          0.84806       -4.34186       -2.88585
H          0.96822        3.83398       -3.99967
H         -0.48942       -3.19079       -4.59765
C         -3.61615       -3.32717       -1.81664
C         -2.72688       -3.42318       -0.75303
C         -2.08702       -2.26352       -0.33744
C         -2.33013       -1.06891       -0.96801
C         -3.21215       -0.98888       -2.01764
C         -3.88043       -2.12435       -2.46078
H         -4.13758       -4.20636       -2.14498
H         -1.41098       -2.28645        0.50008
H         -3.38896       -0.02789       -2.47021
C         -4.77440        2.67383        2.00787
C         -3.44603        3.04951        2.16952
C         -2.48148        2.36989        1.43516
C         -2.84229        1.35708        0.58130
C         -4.15947        0.99874        0.43810
C         -5.15671        1.65186        1.14760
H         -5.52369        3.18468        2.58274
H         -1.43687        2.60486        1.54566
H         -4.41387        0.18712       -0.22052
C          4.29114       -2.99379        2.28438
C          2.93482       -3.28965        2.20482
C          2.14056       -2.48165        1.40125
C          2.67898       -1.40710        0.73844
C          4.01488       -1.11549        0.85129
C          4.85249       -1.90733        1.62343
H          4.92445       -3.62356        2.87861
H          1.08766       -2.67891        1.29878
H          4.40942       -0.25501        0.34047
C          3.99059        3.36221       -1.32363
C          2.92488        3.49179       -0.44191
C          2.20123        2.34891       -0.12640
C          2.52401        1.14498       -0.70031
C          3.56523        1.03680       -1.58903
C          4.32892        2.15145       -1.91497
H          4.58914        4.22784       -1.53923
H          1.38530        2.38506        0.57432
H          3.78338        0.07067       -2.01191
Pd        -0.04080        0.00836        1.37593
C         -0.97284       -5.11403       -0.17992
C         -2.45467       -4.73892       -0.01114
C         -3.31679       -5.89334       -0.55654
C         -2.77767       -4.55454        1.48415
H         -0.73619       -6.02787        0.36467
H         -0.73543       -5.27594       -1.23070
H         -0.32433       -4.32180        0.18983
H         -3.11683       -6.81555       -0.01104
H         -4.37894       -5.67198       -0.45323
H         -3.10232       -6.08051       -1.60856
H         -2.60169       -5.47637        2.03821
H         -2.16260       -3.77531        1.93184
H         -3.82150       -4.27237        1.61969
C         -4.58170       -3.07793       -4.67872
C         -4.94096       -2.07122       -3.56972
C         -5.04168       -0.66673       -4.19668
C         -6.31119       -2.43249       -2.96664
H         -5.30306       -3.03220       -5.49442
H         -3.59525       -2.86672       -5.08936
H         -4.57358       -4.09966       -4.30144
H         -5.78562       -0.65154       -4.99307
H         -5.34007        0.07435       -3.45565
H         -4.09046       -0.35830       -4.62806
H         -6.30547       -3.43844       -2.54837
H         -6.57449       -1.74037       -2.16696
H         -7.09469       -2.38895       -3.72294
C         -3.84440        5.43856        2.83610
C         -3.07987        4.14648        3.17899
C         -1.57098        4.45644        3.15696
C         -3.46039        3.67281        4.59325
H         -4.92198        5.29248        2.89820
H         -3.57865        6.24214        3.52276
H         -3.60833        5.76765        1.82425
H         -1.26023        4.79159        2.16823
H         -1.32667        5.24691        3.86639
H         -0.98434        3.57884        3.42807
H         -4.53049        3.48447        4.67200
H         -2.93938        2.74789        4.84017
H         -3.19578        4.42062        5.34056
C         -7.57590        2.03515        1.84162
C         -6.61449        1.20481        0.97035
C         -6.74091       -0.27637        1.37474
C         -7.02053        1.37332       -0.50566
H         -7.52794        3.09217        1.58047
H         -8.60579        1.70704        1.70129
H         -7.33741        1.92844        2.89967
H         -7.77062       -0.62056        1.28014
H         -6.11821       -0.91348        0.74754
H         -6.42940       -0.42018        2.40910
H         -6.91702        2.41247       -0.81732
H         -6.39655        0.76503       -1.15911
H         -8.05688        1.07463       -0.66230
C          0.90724       -4.15310        3.44052
C          2.32244       -4.49696        2.93016
C          3.17472       -4.90901        4.14731
C          2.24412       -5.67593        1.94661
H          0.21363       -3.98425        2.61915
H          0.50232       -4.96606        4.04287
H          0.92705       -3.25417        4.05640
H          2.68371       -5.70059        4.71329
H          4.14964       -5.28775        3.84275
H          3.32709       -4.06332        4.81769
H          3.23910       -5.95959        1.60409
H          1.78472       -6.54684        2.41375
H          1.65551       -5.41097        1.06940
C          6.96764       -1.61914        0.31147
C          6.34201       -1.54749        1.71672
C          7.10589       -2.51105        2.64469
C          6.48359       -0.11783        2.27341
H          8.02890       -1.37316        0.34298
H          6.86452       -2.62077       -0.10540
H          6.48382       -0.92234       -0.37172
H          6.69917       -2.48619        3.65550
H          7.05473       -3.53514        2.27544
H          8.15866       -2.23545        2.70570
H          6.00980        0.61257        1.61855
H          6.01524       -0.03951        3.25429
H          7.53263        0.15917        2.37591
C          1.30347        4.81036        1.00310
C          2.60880        4.85551        0.18599
C          2.44661        5.91094       -0.92441
C          3.76290        5.25695        1.12105
H          0.46604        4.49766        0.38004
H          1.38790        4.12003        1.84210
H          1.06723        5.79362        1.40962
H          3.36846        6.04096       -1.48963
H          1.66453        5.61674       -1.62332
H          2.17663        6.87974       -0.50450
H          3.56579        6.21858        1.59454
H          3.89673        4.51375        1.90694
H          4.70190        5.33791        0.57439
C          5.65142        0.68559       -3.51974
C          5.56150        2.05904       -2.82565
C          6.82462        2.26273       -1.96984
C          5.49520        3.14737       -3.91467
H          4.75587        0.48393       -4.10687
H          6.50620        0.64881       -4.19495
H          5.77527       -0.11675       -2.79300
H          6.88560        1.50765       -1.18641
H          7.72561        2.19200       -2.57890
H          6.81925        3.24086       -1.48974
H          4.58603        3.05011       -4.50651
H          5.50834        4.14705       -3.48285
H          6.34576        3.07084       -4.59186
H         -0.48050       -0.36807       -5.62838
H          1.93315        0.26612       -4.24251
H         -1.54950        0.32569       -4.40630
H         -1.91483       -1.24736       -5.10845
H          2.57241        1.89443       -4.42181
H          1.22971        1.36448       -5.43374
