171
-217.84489495
P         -1.55122        0.34838       -0.50795
P          1.59799       -0.36585       -0.19014
C         -0.75420        1.32443       -1.78159
C          1.04728       -1.34147       -1.59419
C          0.11616        0.71563       -2.67791
C          0.78199        1.51940       -3.62367
C          0.52301        2.87976       -3.65732
C         -0.36652        3.45772       -2.77606
C         -0.99913        2.67427       -1.83075
C          1.29013       -2.69358       -1.57186
C          0.82156       -3.50196       -2.58816
C          0.08940       -2.94689       -3.61572
C         -0.17004       -1.58683       -3.65513
C          0.33855       -0.75659       -2.63785
Cl         1.19662        0.11927        3.09717
Cl        -1.86409       -0.62339        2.69541
C         -0.97496       -1.03173       -4.77682
C          1.74799        0.93501       -4.59407
H         -0.56475        4.51606       -2.82198
H         -1.68922        3.11532       -1.12945
H          1.84864       -3.12098       -0.75509
H          1.02027       -4.56114       -2.57207
H          1.02935        3.48885       -4.38709
H         -0.29345       -3.57414       -4.40308
C         -3.81937       -3.20173       -2.15209
C         -2.83805       -3.41846       -1.19259
C         -2.14986       -2.31470       -0.70491
C         -2.42322       -1.05958       -1.18752
C         -3.38351       -0.86309       -2.14957
C         -4.11850       -1.93515       -2.64075
H         -4.37112       -4.04832       -2.51471
H         -1.39650       -2.42235        0.05616
H         -3.57034        0.13666       -2.50545
C         -4.38742        2.72117        2.13584
C         -3.03589        3.04561        2.14278
C         -2.19487        2.34898        1.28488
C         -2.68605        1.35514        0.47367
C         -4.02354        1.04502        0.48667
C         -4.90378        1.72113        1.32062
H         -5.05166        3.25053        2.79113
H         -1.13902        2.56022        1.27547
H         -4.38224        0.25165       -0.14472
C          4.34449       -2.76173        2.51543
C          3.00566       -3.12384        2.43860
C          2.18388       -2.39680        1.58651
C          2.68810       -1.34720        0.85833
C          4.01377       -1.00205        0.95123
C          4.87436       -1.70990        1.77970
H          4.99017       -3.30383        3.18165
H          1.13523       -2.62571        1.50611
H          4.36976       -0.16211        0.38262
C          3.80775        3.44796       -1.20308
C          2.76345        3.50209       -0.28802
C          2.07100        2.32694       -0.02692
C          2.42815        1.15522       -0.64651
C          3.46820        1.11624       -1.54279
C          4.18397        2.27082       -1.83802
H          4.35856        4.34295       -1.42236
H          1.25272        2.31767        0.67188
H          3.72283        0.17339       -1.99639
Pd        -0.16360       -0.10330        1.32031
C         -3.82656       -5.35678        0.04629
C         -2.57084       -4.83906       -0.67755
C         -1.38862       -4.86849        0.30970
C         -2.23555       -5.76224       -1.86386
H         -3.66502       -6.36051        0.43900
H         -4.08512       -4.70472        0.88045
H         -4.68262       -5.39414       -0.62656
H         -1.19265       -5.88563        0.64868
H         -0.47938       -4.49415       -0.15957
H         -1.59886       -4.26250        1.19076
H         -1.37261       -5.38609       -2.41195
H         -2.00362       -6.77008       -1.51998
H         -3.06904       -5.83348       -2.56138
C         -4.65599       -1.11632       -4.95604
C         -5.24626       -1.68518       -3.65418
C         -6.24505       -0.67498       -3.05936
C         -6.01010       -2.98093       -3.98932
H         -4.10123       -0.19734       -4.77004
H         -3.97961       -1.83452       -5.41758
H         -5.44386       -0.89119       -5.67468
H         -7.08433       -0.51091       -3.73500
H         -6.64097       -1.03788       -2.11100
H         -5.77041        0.28895       -2.88153
H         -5.35069       -3.71939       -4.44496
H         -6.45362       -3.41683       -3.09424
H         -6.81713       -2.78226       -4.69448
C         -1.39659        3.39532        4.00186
C         -2.43816        4.08637        3.10029
C         -3.51435        4.72456        3.99935
C         -1.76241        5.20090        2.28366
H         -1.85808        2.59160        4.57504
H         -0.58908        2.95932        3.41555
H         -0.95526        4.10260        4.70362
H         -4.00938        3.97222        4.61307
H         -3.06997        5.45783        4.67229
H         -4.26890        5.23849        3.40412
H         -0.96205        4.79996        1.66607
H         -2.48136        5.68796        1.62518
H         -1.33193        5.95971        2.93689
C         -6.53616       -0.18058        1.51028
C         -6.39188        1.34204        1.31534
C         -7.00694        1.75282       -0.03323
C         -7.16483        2.04725        2.44675
H         -7.58583       -0.46903        1.56235
H         -6.08337       -0.73488        0.68933
H         -6.05251       -0.49666        2.43430
H         -6.49662        1.26140       -0.85978
H         -8.06215        1.48441       -0.08100
H         -6.92342        2.82904       -0.18337
H         -7.14872        3.12956        2.32086
H         -8.20906        1.73496        2.45430
H         -6.73921        1.80484        3.42038
C          0.97739       -4.53358        3.04444
C          2.46669       -4.25577        3.32396
C          2.61831       -3.85091        4.80129
C          3.26073       -5.54629        3.05000
H          0.82718       -4.82103        2.00467
H          0.61029       -5.34757        3.66930
H          0.36648       -3.65597        3.25540
H          2.22513       -4.62409        5.46104
H          3.66378       -3.68862        5.06099
H          2.07677       -2.92660        5.00210
H          3.18667       -5.82729        1.99955
H          4.31596       -5.42302        3.29028
H          2.87846       -6.37323        3.64823
C          6.74727       -0.18559        0.97809
C          6.35757       -1.34078        1.92176
C          7.22523       -2.56459        1.57421
C          6.63133       -0.90230        3.37161
H          6.18292        0.71787        1.20865
H          7.80591        0.05438        1.07600
H          6.56373       -0.45278       -0.06243
H          7.02146       -2.90434        0.55888
H          8.28571       -2.32265        1.64271
H          7.02978       -3.39548        2.25094
H          6.41467       -1.70565        4.07481
H          7.67449       -0.61518        3.50263
H          6.00910       -0.04817        3.63828
C          1.05580        5.32179       -0.25667
C          2.34541        4.80811        0.40245
C          3.43458        5.89153        0.27565
C          2.10039        4.55378        1.90349
H          0.70022        6.23049        0.22866
H          1.22601        5.54488       -1.30964
H          0.26762        4.57267       -0.19973
H          3.15549        6.78661        0.83154
H          4.38569        5.53597        0.67175
H          3.58100        6.18724       -0.76278
H          1.84846        5.47998        2.41970
H          1.28063        3.85646        2.06472
H          2.99100        4.13719        2.37338
C          5.61396        0.88689       -3.42562
C          5.39676        2.26937       -2.78002
C          6.65759        2.63338       -1.97423
C          5.18616        3.30650       -3.89947
H          5.81256        0.12733       -2.66978
H          4.74216        0.57963       -4.00187
H          6.46753        0.90647       -4.10308
H          6.57016        3.62449       -1.53041
H          6.81850        1.91965       -1.16702
H          7.54255        2.62865       -2.61031
H          4.27674        3.09522       -4.45985
H          5.10192        4.31499       -3.49671
H          6.02180        3.29864       -4.59911
H         -1.76884       -1.72335       -5.05947
H          2.62771        1.57018       -4.69545
H         -0.35418       -0.86138       -5.65720
H         -1.44211       -0.08534       -4.50084
H          1.29613        0.83460       -5.58172
H          2.08866       -0.05076       -4.27455
