105
-153.06857420
Cl        -0.49215        1.82855       -3.06135
Pd         0.28767        1.30185       -1.01234
P          1.43097        0.55482        0.90749
N          1.25693       -1.00433        1.70098
C          0.24336       -1.95767        1.57186
C         -0.17337       -2.46418        0.31352
C         -1.16767       -3.46244        0.26601
C         -1.57989       -4.01587       -1.07768
C         -2.40073       -5.31319       -1.01104
C         -3.46507       -5.23341        0.08699
C         -2.81189       -5.00225        1.45771
C         -1.73434       -3.94700        1.44782
C         -1.28276       -3.46163        2.66825
C         -0.31113       -2.49787        2.73189
H          0.02377       -2.13021        3.68613
H         -1.71256       -3.85175        3.57534
H         -3.57213       -4.72434        2.19901
H         -4.15278       -4.40748       -0.13376
H         -2.86167       -5.53446       -1.98407
H         -2.15538       -3.24598       -1.60440
C          0.55857       -2.11683       -0.92918
C         -0.13585       -1.50931       -2.01162
C          0.52640       -1.36571       -3.23397
C          1.82064       -1.78708       -3.38916
C          2.51199       -2.39302       -2.34781
C          3.91612       -2.87522       -2.61303
C          4.39288       -3.94844       -1.62382
C          4.07678       -3.53694       -0.18342
C          2.56971       -3.30245        0.01407
C          1.88390       -2.56150       -1.11113
H          2.06148       -4.26433        0.15106
H          4.62505       -2.61850        0.06001
H          5.46766       -4.14424       -1.74658
H          4.59484       -2.01511       -2.58565
H          2.31691       -1.65341       -4.33550
H          0.01266       -0.88599       -4.04850
N         -1.43604       -1.00361       -1.88015
P         -1.72279        0.15792       -0.58660
C         -2.57192       -0.48430        0.84533
C         -3.61653       -1.36254        0.69063
C         -4.31443       -1.79513        1.80408
C         -3.97712       -1.33683        3.07113
C         -2.92772       -0.43619        3.20008
C         -2.23366       -0.00338        2.08501
H         -1.42444        0.70133        2.17126
H         -2.65370       -0.07964        4.17819
C         -4.69714       -1.83845        4.27372
H         -5.12452       -2.49573        1.69517
H         -3.87856       -1.70428       -0.29805
C         -2.73068        1.54186       -1.13708
C         -2.57358        2.76137       -0.52035
C         -3.34645        3.83632       -0.91948
C         -4.28145        3.69488       -1.93594
C         -4.44038        2.44929       -2.52881
C         -3.66599        1.37504       -2.12963
H         -3.79491        0.40620       -2.58386
H         -5.17527        2.32575       -3.30585
C         -5.12821        4.84715       -2.35152
H         -3.22645        4.79402       -0.44248
H         -1.84473        2.86951        0.26823
H         -1.79774       -0.55198       -2.71006
H          1.69027       -0.89290        2.60868
C          0.86816        1.87347        1.99318
C          0.86232        3.16581        1.52247
C          0.39996        4.19070        2.32631
C         -0.04592        3.92974        3.61480
C         -0.02238        2.62078        4.07723
C          0.44084        1.59792        3.27050
H          0.45185        0.58190        3.62811
H         -0.37463        2.40677        5.07189
C         -0.57571        5.02770        4.46995
H          0.38198        5.20148        1.95600
H          1.22873        3.36572        0.52781
C          3.20242        0.76107        0.69650
C          3.90486        1.59834        1.53107
C          5.27147        1.74062        1.37339
C          5.94495        1.03875        0.38303
C          5.21748        0.20307       -0.45268
C          3.85161        0.06155       -0.28948
H          3.27929       -0.57899       -0.93836
H          5.72780       -0.33076       -1.23573
C          7.41114        1.21310        0.19054
H          5.82363        2.40253        2.01849
H          3.38267        2.14050        2.30264
Cl         2.28030        2.14849       -1.64180
H         -2.37690       -5.94048        1.82232
H         -1.73059       -6.15719       -0.80479
H         -4.08637       -6.14019        0.09583
H         -0.67946       -4.17416       -1.68458
H          4.44760       -4.29203        0.52411
H          2.40865       -2.75275        0.94755
H          3.97235       -3.25685       -3.64064
H          3.89231       -4.89885       -1.84813
H         -4.70963       -1.08910        5.06641
H         -5.73253       -2.08775        4.03738
H         -4.21608       -2.73559        4.66592
H         -4.59080        5.78999       -2.24062
H         -5.42788        4.75900       -3.39671
H         -6.03323        4.90166       -1.74498
H         -0.42319        4.81169        5.52833
H         -0.07731        5.97294        4.25036
H         -1.64530        5.16478        4.30503
H          7.61509        2.02020       -0.51434
H          7.90636        1.45491        1.13200
H          7.86792        0.30224       -0.19911
