87
-129.18811865
P         -1.62678       -0.34671       -0.22392
P          1.59984        0.35659       -0.09888
C         -1.35712        0.96528       -1.43062
C          1.40654       -0.67085       -1.56345
C         -0.36887        0.87216       -2.40636
C         -0.15310        1.97128       -3.26061
C         -0.94277        3.10034       -3.12559
C         -1.92482        3.16935       -2.16147
C         -2.12382        2.09936       -1.31183
C          2.18747       -1.79530       -1.67614
C          2.04271       -2.63696       -2.76109
C          1.10465       -2.34735       -3.72867
C          0.30359       -1.22183       -3.63351
C          0.46160       -0.35539       -2.53379
Cl         1.19930        0.88885        3.06685
Cl        -1.38646       -1.16163        2.92837
H         -2.52828        4.05696       -2.06442
H         -2.88257        2.15092       -0.54883
H          2.91362       -2.01812       -0.91216
H          2.65391       -3.52055       -2.84547
H         -0.77473        3.93630       -3.78325
H          0.98036       -3.00604       -4.57142
C         -1.40555       -4.51946       -2.00612
C         -0.64360       -4.21571       -0.88618
C         -0.74885       -2.94306       -0.33940
C         -1.56438       -1.99869       -0.91883
C         -2.31401       -2.30570       -2.02988
C         -2.23746       -3.57439       -2.57419
H         -1.34102       -5.50631       -2.43172
C          0.24729       -5.23089       -0.26181
H         -0.18621       -2.69302        0.54369
H         -2.94261       -1.54896       -2.47237
H         -2.82095       -3.82228       -3.44565
C         -5.51813        0.36631        2.03495
C         -5.42855       -0.67471        1.13213
C         -4.24778       -0.89488        0.44835
C         -3.16851       -0.07134        0.66775
C         -3.25515        0.96521        1.56883
C         -4.43069        1.19546        2.27271
H         -6.43744        0.54063        2.56763
H         -6.27726       -1.31669        0.96178
H         -4.16162       -1.70890       -0.25240
H         -2.39964        1.59764        1.74035
C         -4.51925        2.32559        3.23695
C          5.15787       -1.09589        2.34831
C          5.21629        0.12971        1.71461
C          4.13867        0.57432        0.97219
C          3.01468       -0.21034        0.86467
C          2.95297       -1.43023        1.49858
C          4.02272       -1.88937        2.25675
H          5.99702       -1.44538        2.92532
H          6.09994        0.74067        1.80023
H          4.16705        1.53249        0.47998
H          2.06456       -2.03348        1.41178
C          3.95463       -3.21722        2.92525
C          1.90138        4.76430       -1.14976
C          2.71738        3.84877       -1.78517
C          2.63737        2.50825       -1.45607
C          1.74489        2.09898       -0.49342
C          0.94057        3.00947        0.15150
C          1.00733        4.36000       -0.16783
H          1.95160        5.80656       -1.41510
H          3.40917        4.17648       -2.54372
H          3.25285        1.77632       -1.95530
H          0.25020        2.67149        0.90565
C          0.10105        5.33673        0.49441
Pd        -0.06289       -0.07396        1.48388
C          0.90862        1.94956       -4.30508
C         -0.70930       -0.95883       -4.69329
H          1.46386        2.88852       -4.31385
H          1.62577        1.14690       -4.13023
H          0.47640        1.80692       -5.29620
H         -0.23185       -0.60876       -5.60928
H         -1.26632       -1.86602       -4.93161
H         -1.43108       -0.20431       -4.37878
H         -0.26586       -5.75076        0.54832
H          0.56950       -5.97551       -0.99107
H          1.14267       -4.76370        0.15148
H         -5.32656        2.17208        3.95431
H         -3.59107        2.42988        3.80083
H         -4.70498        3.26601        2.71619
H          4.20923       -4.01612        2.22735
H          4.64545       -3.27201        3.76770
H          2.95109       -3.41053        3.30729
H         -0.12790        5.02895        1.51576
H          0.55471        6.32773        0.54035
H         -0.84041        5.42097       -0.05028
