111
-148.55476614
P         -2.47298       -2.09517       -1.11577
P          0.13943       -0.37852       -0.53024
C         -1.31731       -1.71379       -2.46123
C         -0.16616       -1.00444       -2.19279
C         -3.20927       -3.78388       -1.29044
C         -2.62854       -4.74425       -0.27558
C         -1.58971       -2.11845       -3.75235
H         -2.50083       -2.65453       -3.96182
C         -0.70032       -1.81945       -4.77021
H         -0.91228       -2.13548       -5.77860
C          0.45634       -1.11488       -4.49637
H          1.14751       -0.88060       -5.28920
C          0.72226       -0.70201       -3.20306
H          1.61250       -0.13737       -2.97325
Pd        -1.34026       -1.53650        0.81143
Cl        -3.07527       -2.34945        1.97869
Cl        -0.11235       -0.94112        2.59846
C         -4.71857       -3.51815       -1.13485
C         -4.00541       -1.06008       -1.14778
H         -1.54547       -4.83441       -0.38874
H         -2.82329       -4.39851        0.74066
H         -3.06481       -5.74107       -0.37367
H         -4.99616       -3.67160       -0.08289
H         -5.29984       -4.25878       -1.70493
H         -4.16808       -0.72615       -0.11417
C         -5.09282       -2.06931       -1.56053
C         -3.85235        0.12428       -2.07717
H         -2.98349       -4.11882       -2.31078
H         -5.21775       -2.02831       -2.65139
H         -6.06692       -1.77552       -1.14063
H         -4.76632        0.72132       -2.11831
H         -3.03743        0.77550       -1.75400
H         -3.62493       -0.20619       -3.09238
C         -1.18451        3.95671       -0.10196
C         -1.08920        3.38522       -1.39732
C         -0.67444        2.06821       -1.50528
C         -0.43793        1.31063       -0.38866
C         -0.63820        1.82593        0.86398
C         -1.04645        3.13487        1.04536
O         -1.37727        5.35611        0.04514
C         -1.39106        4.18268       -2.67573
H         -0.51773        1.61730       -2.46906
H         -0.45687        1.18082        1.70597
C         -1.29314        3.64315        2.47375
C          4.42750       -0.74308        0.94991
C          3.81854        0.53357        0.84840
C          2.51294        0.60016        0.39396
C          1.84453       -0.52415       -0.01400
C          2.46048       -1.74763       -0.01175
C          3.76747       -1.88581        0.42816
O          5.67969       -0.88093        1.60594
C          4.52730        1.83247        1.26316
H          1.98880        1.53943        0.37125
H          1.89598       -2.60099       -0.34652
C          4.43099       -3.27090        0.37269
C         -0.10483        4.86686       -3.16263
C         -1.90701        3.24960       -3.79492
C         -2.48946        5.23241       -2.42715
C         -1.80386        2.49651        3.37701
C          0.02535        4.17597        3.05522
C         -2.36914        4.74355        2.49575
C         -0.16798        6.10138        0.11562
H         -0.28474        5.43066       -4.07763
H          0.28283        5.55486       -2.41517
H          0.67026        4.12865       -3.36743
H         -1.13468        2.56274       -4.13770
H         -2.75913        2.66485       -3.45034
H         -2.22813        3.82710       -4.66150
H         -2.16771        5.98037       -1.70673
H         -2.74981        5.75308       -3.34834
H         -3.39070        4.75971       -2.03810
H         -2.10517        2.87706        4.35258
H         -2.66645        2.00441        2.92850
H         -1.03494        1.74557        3.55156
H          0.41724        4.99594        2.45797
H         -0.11443        4.53706        4.07376
H          0.78115        3.39119        3.07606
H         -2.58725        5.05804        3.51604
H         -2.04983        5.62277        1.94206
H         -3.29421        4.38402        2.04635
H         -0.11423        6.62402        1.07043
H          0.69359        5.44007        0.01456
H         -0.15090        6.84518       -0.68087
C          5.57755       -1.12159        3.00391
C          6.04121        1.74652        0.99887
C          3.99357        3.03179        0.44546
C          4.26108        2.10220        2.75198
C          4.14313       -4.02341        1.68081
C          3.86872       -4.09849       -0.80556
C          5.94980       -3.15243        0.15032
H          6.23522        1.51719       -0.04839
H          6.53479        2.68836        1.23719
H          6.50601        0.97012        1.60129
H          4.58379        3.92668        0.64144
H          4.04372        2.82559       -0.62338
H          2.96178        3.26876        0.70157
H          4.64413        1.29698        3.37388
H          4.73521        3.02970        3.07198
H          3.19136        2.18617        2.94214
H          3.06979       -4.13644        1.83160
H          4.58907       -5.01756        1.66614
H          4.54194       -3.48890        2.53948
H          4.42560       -5.02747       -0.92607
H          2.82618       -4.37005       -0.64692
H          3.94070       -3.54163       -1.73948
H          6.43544       -2.64935        0.98257
H          6.16179       -2.58266       -0.75377
H          6.40859       -4.13549        0.04738
H          4.53065       -1.15048        3.30890
H          6.05404       -2.07092        3.24783
H          6.09432       -0.33240        3.54972
