59
-75.80631267
Cl         1.64906        0.65378        2.27919
P          1.61608       -0.11749       -0.85684
P         -1.58732       -0.18376       -0.77645
C          0.59369        0.15823       -2.36984
H          0.33008        1.21699       -2.42918
H          1.19808       -0.07932       -3.25099
C         -0.64023       -0.69236       -2.27388
H         -0.37702       -1.74866       -2.17173
H         -1.28833       -0.59253       -3.15028
C          2.64002       -1.64424       -1.13658
H          2.48148       -1.87885       -2.19796
C          2.98441        1.12276       -0.67357
H          3.07803        1.30864        0.40321
C         -3.02787       -1.29103       -0.43571
H         -3.24419       -1.18531        0.63473
C         -2.52231        1.37703       -1.13601
H         -2.14190        1.75300       -2.09335
C          4.08784       -1.16322       -0.93561
H          4.40971       -1.38835        0.08822
H          4.77240       -1.72802       -1.58638
C          4.21950        0.36203       -1.18522
H          4.33016        0.55060       -2.26201
H          5.13428        0.76032       -0.72024
C         -4.13786       -0.62820       -1.26827
H         -4.07448       -1.00236       -2.30000
H         -5.12916       -0.93697       -0.90152
C         -3.99427        0.91965       -1.26049
H         -4.56039        1.32493       -0.41101
H         -4.45977        1.35912       -2.15503
C          2.22715       -2.84188       -0.28187
H          2.80125       -3.72244       -0.60233
H          1.18219       -3.08665       -0.51007
C          2.72139        2.43595       -1.40134
H          3.64382        3.03328       -1.40527
H          2.51373        2.22236       -2.45774
C         -2.75546       -2.75157       -0.76875
H         -3.70045       -3.31186       -0.74256
H         -2.40803       -2.82207       -1.80740
C         -2.29798        2.40262       -0.03039
H         -2.70682        2.00320        0.90770
H         -1.22230        2.50928        0.15710
C          2.39468       -2.65088        1.21925
H          1.97205       -3.48459        1.78495
H          1.90304       -1.74311        1.56596
H          3.44420       -2.57285        1.50597
C          1.58810        3.23929       -0.78521
H          1.41164        4.17780       -1.31562
H          1.79826        3.48347        0.25783
H          0.65624        2.67567       -0.79830
C         -1.74792       -3.38222        0.17932
H         -2.12696       -3.40028        1.20297
H         -0.81990       -2.81091        0.19920
H         -1.50223       -4.40908       -0.10056
C         -2.90836        3.76096       -0.34218
H         -3.98715        3.68860       -0.49057
H         -2.73538        4.48126        0.46064
H         -2.48575        4.18099       -1.25694
Cl        -1.54883        0.03474        2.43204
Pd         0.04128        0.01244        0.85086
