111
-148.55578226
P         -2.50741       -2.04987       -1.01332
P          0.13624       -0.38588       -0.50956
C         -1.36040       -1.74696       -2.38512
C         -0.19033       -1.05813       -2.14969
C         -3.29226       -3.72239       -1.12898
C         -2.70855       -4.67988       -0.11312
C         -1.65304       -2.18975       -3.65927
H         -2.57878       -2.70958       -3.84373
C         -0.76411       -1.94930       -4.69288
H         -0.99147       -2.29519       -5.68802
C          0.41185       -1.26487       -4.45187
H          1.10256       -1.07600       -5.25711
C          0.69772       -0.81336       -3.17594
H          1.60340       -0.26341       -2.97248
Pd        -1.36262       -1.44771        0.89979
Cl        -3.10945       -2.24466        2.05868
Cl        -0.09500       -0.79872        2.63758
C         -4.78850       -3.41155       -0.93779
C         -4.01256       -0.97480       -1.05889
H         -1.63192       -4.80091       -0.25480
H         -2.86522       -4.31198        0.90174
H         -3.17336       -5.66624       -0.18094
H         -5.03714       -3.52026        0.12692
H         -5.40595       -4.15587       -1.46331
H         -4.14300       -0.59143       -0.03795
C         -5.13703       -1.96886       -1.40424
C         -3.84694        0.16284       -2.04274
H         -3.10601       -4.08386       -2.14820
H         -5.29251       -1.96307       -2.49187
H         -6.09069       -1.63463       -0.96811
H         -3.00484        0.80150       -1.76771
H         -3.65450       -0.21813       -3.04743
H         -4.74340        0.78553       -2.08882
C         -1.10375        3.99030       -0.23864
C         -0.99365        3.37630       -1.51538
C         -0.60101        2.04913       -1.57319
C         -0.40607        1.31995       -0.42966
C         -0.64147        1.87327        0.80066
C         -1.02886        3.19393        0.93449
O         -1.20131        5.40146       -0.13201
C         -1.28964        4.09740       -2.84132
H         -0.43226        1.57098       -2.52243
H         -0.50331        1.25314        1.66973
C         -1.35845        3.70026        2.34815
C          4.43152       -0.81755        0.93762
C          3.75963        0.42423        1.06804
C          2.45494        0.51106        0.61513
C          1.84402       -0.54799       -0.00322
C          2.52069       -1.71943       -0.21963
C          3.83256       -1.87206        0.20065
O          5.68422       -1.01707        1.57646
C          4.39772        1.65547        1.72996
H          1.88681        1.41293        0.75833
H          2.00186       -2.52152       -0.71587
C          4.57117       -3.18185       -0.11672
C         -2.04512        5.42136       -2.63240
C          0.03145        4.37085       -3.57889
C         -2.18662        3.20268       -3.72520
C         -2.10139        5.04698        2.32985
C         -2.28317        2.68188        3.05247
C         -0.05687        3.83983        3.15556
C          0.06599        6.03340       -0.05826
H         -2.32937        5.86624       -3.58574
H         -2.95078        5.25897       -2.04903
H         -1.43206        6.14568       -2.10138
H          0.56619        3.44249       -3.77740
H         -0.15028        4.86404       -4.53345
H          0.68529        5.01112       -2.98970
H         -1.68921        2.27444       -4.00134
H         -3.10915        2.94980       -3.20374
H         -2.45437        3.71442       -4.64925
H         -2.99181        4.98593        1.70512
H         -2.40887        5.33972        3.33348
H         -1.47075        5.83981        1.93471
H         -2.59675        3.05176        4.02820
H         -3.17804        2.49990        2.45807
H         -1.78689        1.72634        3.21327
H          0.46631        2.88613        3.21836
H          0.61746        4.55886        2.69418
H         -0.26294        4.17621        4.17126
H          0.63966        5.82704       -0.96038
H         -0.07422        7.10996        0.04116
H          0.62029        5.66119        0.80190
C          5.58271       -1.52343        2.90155
C          3.81777        2.95910        1.13298
C          4.09593        1.63261        3.23619
C          5.91782        1.68979        1.49085
C          6.08126       -2.93980       -0.29404
C          4.32564       -4.19090        1.01526
C          4.05596       -3.79059       -1.44093
H          3.89524        2.95606        0.04607
H          2.77149        3.09702        1.40172
H          4.35910        3.82888        1.50453
H          4.51938        2.50508        3.73307
H          3.02055        1.63144        3.41286
H          4.50821        0.74383        3.70760
H          6.36011        2.59338        1.90964
H          6.41173        0.83812        1.95169
H          6.13881        1.66664        0.42427
H          6.59392       -3.85695       -0.58303
H          6.26194       -2.19239       -1.06586
H          6.53752       -2.58496        0.62664
H          3.26019       -4.38852        1.13061
H          4.82473       -5.13754        0.80984
H          4.69636       -3.81513        1.96581
H          4.66316       -4.64633       -1.73531
H          4.09765       -3.05778       -2.24639
H          3.02975       -4.14347       -1.35077
H          6.04371       -0.82295        3.59765
H          4.53644       -1.67066        3.17270
H          6.11416       -2.47230        2.97227
