75
-122.81178374
P          1.85609       -0.53885        0.11961
C          1.60183       -1.58462       -1.31696
C          1.23931       -2.89759       -1.12076
C          1.15499       -3.75440       -2.20370
C          1.44116       -3.29004       -3.47232
C          1.80724       -1.97218       -3.66262
C          1.89082       -1.11775       -2.57869
H          2.18270       -0.08832       -2.70868
H          2.02658       -1.60899       -4.65311
H          1.37197       -3.95613       -4.31676
H          0.86653       -4.78205       -2.05611
H          1.03885       -3.24887       -0.12051
C          3.26471       -1.24630        1.00214
C          4.18700       -1.96908        0.27831
C          5.28519       -2.52264        0.91141
C          5.45712       -2.34568        2.26955
C          4.53751       -1.61244        2.99174
C          3.44411       -1.06062        2.35288
H          2.74018       -0.45921        2.90024
H          4.67474       -1.46404        4.05030
H          6.31188       -2.77623        2.76527
H          6.00424       -3.09097        0.34462
H          4.04376       -2.09911       -0.78245
C          2.25471        1.14445       -0.36478
C          3.40982        1.79043        0.00798
C          3.58917        3.13576       -0.28537
C          2.55844        3.82592       -0.92362
C          1.39018        3.19266       -1.28671
C          1.24390        1.82036       -1.02969
O          0.07568        1.13075       -1.38984
C         -1.13031        1.78136       -1.08720
C         -1.29495        3.15503       -1.32511
C         -2.48465        3.75892       -0.98447
C         -3.52183        3.03395       -0.39824
C         -3.33466        1.68145       -0.14851
C         -2.15897        1.06033       -0.50017
P         -1.73826       -0.65735       -0.13373
C         -3.01161       -1.42457        0.88498
C         -4.31130       -1.41865        0.43171
C         -5.30524       -2.02272        1.18021
C         -4.98792       -2.63877        2.37415
C         -3.68009       -2.65914        2.81582
C         -2.68871       -2.05502        2.06474
H         -1.66346       -2.07529        2.39670
H         -3.43086       -3.14445        3.74515
H         -5.76126       -3.10840        2.95988
H         -6.32411       -2.01502        0.82935
H         -4.54070       -0.95743       -0.51615
C         -1.72291       -1.57576       -1.68509
C         -1.39538       -0.94942       -2.86559
C         -1.47147       -1.64024       -4.06036
C         -1.87111       -2.96164       -4.06500
C         -2.19162       -3.59148       -2.87885
C         -2.11957       -2.89401       -1.68648
H         -2.38264       -3.36959       -0.75522
H         -2.50116       -4.62363       -2.88118
H         -1.92650       -3.50393       -4.99475
H         -1.21046       -1.14991       -4.98372
H         -1.06139        0.07389       -2.84393
Pd        -0.05800       -0.00812        1.43666
Cl        -1.76163        0.91168        2.60032
Cl         1.35780        1.13659        2.76384
H         -4.10242        1.12349        0.35637
C         -4.78102        3.70861        0.01466
H         -5.63630        3.03929       -0.08716
H         -4.97527        4.59058       -0.59697
H         -4.72427        4.02639        1.05650
H         -2.60542        4.81289       -1.16222
S          0.04667        4.06586       -2.04954
H          2.66608        4.87747       -1.12289
C          4.82443        3.84388        0.14305
H          4.16552        1.25267        0.55386
H          5.68478        3.17342        0.13336
H          5.04858        4.68087       -0.51947
H          4.71350        4.23491        1.15518
