111
-148.55537550
P         -2.29806       -2.34977       -1.00443
P          0.05151       -0.27856       -0.53013
C         -1.30237       -1.78865       -2.40533
C         -0.31057       -0.85455       -2.20158
C         -2.36543       -4.19341       -0.89929
C         -1.55027       -4.68549        0.27712
C         -1.55693       -2.26215       -3.67623
H         -2.32891       -3.00008       -3.82379
C         -0.82427       -1.78222       -4.74814
H         -1.02256       -2.14911       -5.74196
C          0.15271       -0.82611       -4.54637
H          0.71633       -0.44471       -5.38188
C          0.40841       -0.35879       -3.26954
H          1.15975        0.39638       -3.09848
Pd        -1.54782       -1.23475        0.86300
Cl        -3.35336       -1.90273        2.01913
Cl        -0.82142        0.00293        2.59656
C         -3.87427       -4.48495       -0.79397
C         -4.10150       -1.96886       -1.20576
H         -0.50172       -4.39134        0.18482
H         -1.92776       -4.26333        1.21081
H         -1.59187       -5.77380        0.36501
H         -4.14137       -4.57759        0.26777
H         -4.10847       -5.46202       -1.24318
H         -4.43089       -1.56359       -0.23983
C         -4.72527       -3.35675       -1.44173
C         -4.35705       -0.97031       -2.31508
H         -1.96157       -4.57477       -1.84623
H         -4.80245       -3.53117       -2.52367
H         -5.75932       -3.37986       -1.06552
H         -4.03138       -1.36541       -3.27826
H         -5.41969       -0.73186       -2.40030
H         -3.81352       -0.03911       -2.14538
C         -0.96828        4.13659       -0.10422
C         -1.99771        3.17730       -0.29992
C         -1.63306        1.85271       -0.47586
C         -0.32448        1.46065       -0.37140
C          0.65871        2.36265       -0.06036
C          0.36630        3.70428        0.11900
O         -1.26110        5.52139       -0.19925
C         -3.49859        3.51348       -0.28279
H         -2.37721        1.10289       -0.68373
H          1.66768        2.00393        0.04843
C          1.50217        4.63419        0.57861
C          4.35882       -0.98870        0.80078
C          3.99629       -1.26183       -0.54279
C          2.68296       -1.04710       -0.92607
C          1.73555       -0.64310       -0.02083
C          2.06317       -0.48817        1.30067
C          3.35355       -0.69344        1.75569
O          5.72803       -0.97310        1.17800
C          5.01481       -1.74229       -1.58844
H          2.38532       -1.18547       -1.94909
H          1.28231       -0.19656        1.97983
C          3.64211       -0.57111        3.26038
C         -4.24758        2.47293        0.58122
C         -3.77685        4.89461        0.33522
C         -4.05250        3.46927       -1.71598
C          0.97232        5.96288        1.14511
C          2.30359        3.94927        1.70857
C          2.44415        4.91551       -0.60314
C         -1.15411        6.01838       -1.52250
H         -5.29743        2.74275        0.69192
H         -4.21536        1.47852        0.13953
H         -3.80877        2.41251        1.57677
H         -3.33390        4.96708        1.32792
H         -3.35813        5.69093       -0.27572
H         -4.84748        5.07646        0.42564
H         -3.88607        2.49211       -2.16778
H         -5.12436        3.66543       -1.72511
H         -3.57088        4.21309       -2.34760
H          1.78233        6.56785        1.55183
H          0.47780        6.55026        0.37500
H          0.25090        5.78025        1.94078
H          2.83064        3.06588        1.35205
H          3.05134        4.62630        2.12084
H          1.64151        3.64522        2.51887
H          1.91974        5.41661       -1.41434
H          3.27402        5.55172       -0.29648
H          2.85956        3.98872       -0.99799
H         -1.42533        7.07424       -1.53272
H         -0.13285        5.90622       -1.88240
H         -1.82159        5.46840       -2.18367
C          6.34081        0.30620        1.07548
C          6.09458       -2.62921       -0.94207
C          4.32257       -2.59492       -2.67612
C          5.66476       -0.52394       -2.26148
C          3.95878        0.89269        3.60147
C          2.41256       -1.01435        4.08638
C          4.81231       -1.47976        3.67859
H          6.77993       -3.02229       -1.69258
H          6.68444       -2.07181       -0.21853
H          5.63903       -3.47222       -0.42365
H          5.05894       -3.04261       -3.34318
H          3.74434       -3.40180       -2.22664
H          3.65488       -1.99636       -3.29413
H          6.38289       -0.83382       -3.02025
H          4.91068        0.09777       -2.74370
H          6.18857        0.09391       -1.53612
H          3.11044        1.53377        3.36464
H          4.18062        1.00733        4.66212
H          4.81525        1.25385        3.03695
H          2.65327       -1.05347        5.14841
H          1.57895       -0.32304        3.97380
H          2.07802       -2.00563        3.78195
H          5.73998       -1.17971        3.19808
H          4.61241       -2.51424        3.40136
H          4.97234       -1.44202        4.75582
H          5.63357        1.03686        0.68072
H          6.68523        0.62839        2.05794
H          7.20571        0.24384        0.41517
