58
-89.86845960
P          1.58986        0.12954        0.75013
C          1.56360        1.92194        0.61947
C          1.48116        2.48079       -0.63521
C          1.44782        3.85494       -0.77996
C          1.50547        4.66261        0.33828
C          1.60325        4.09944        1.59554
C          1.63537        2.72368        1.73614
H          1.71731        2.27558        2.71278
H          1.45105        1.83138       -1.49548
C          3.19339       -0.51928        0.27039
C          4.28714        0.31595        0.29284
C          5.52986       -0.16725       -0.07596
C          5.66682       -1.48514       -0.46492
C          4.56644       -2.31926       -0.48595
C          3.32523       -1.83350       -0.11572
H          2.45699       -2.47214       -0.14029
H          4.16237        1.34390        0.59391
C          1.20435       -0.45502        2.45441
C          0.49654       -1.80406        2.44287
C         -1.01515       -1.71175        2.29784
P         -1.59785       -0.80943        0.79667
C         -1.76587        0.96874        1.03732
C         -1.67322        1.55765        2.27740
C         -1.76994        2.93204        2.39373
C         -1.96208        3.70903        1.26867
C         -2.06378        3.11491        0.02707
C         -1.96658        1.74030       -0.08514
H         -2.03484        1.25751       -1.04780
H         -1.53701        0.94831        3.15466
C         -3.15225       -1.52571        0.25567
C         -3.18213       -2.84124       -0.14633
C         -4.37314       -3.40277       -0.57152
C         -5.52523       -2.64148       -0.58946
C         -5.49001       -1.32157       -0.18486
C         -4.29769       -0.76287        0.23868
H         -4.25406        0.26712        0.55347
H         -2.27137       -3.41938       -0.13851
Pd         0.06849       -0.64093       -0.81627
Cl         1.57522       -0.29931       -2.44783
Cl        -1.53204       -1.20228       -2.29236
H         -1.46069       -2.70858        2.25112
H         -1.46133       -1.22021        3.16354
H          0.90793       -2.41510        1.62790
H          0.73515       -2.35826        3.36416
H          2.16368       -0.50280        2.97628
H          0.60277        0.29569        2.96674
H          1.37715        4.29223       -1.76224
H          1.65147        4.73069        2.46759
H          6.38759        0.48494       -0.06226
H          4.67235       -3.34626       -0.79472
H         -1.69200        3.39676        3.36292
H         -2.21044        3.71904       -0.85302
H         -4.39925       -4.43107       -0.89268
H         -6.38821       -0.72639       -0.20162
H          1.47691        5.73453        0.22962
H          6.63366       -1.86265       -0.75550
H         -2.03043        4.78080        1.35962
H         -6.45288       -3.07740       -0.92286
