72
-108.40291067
Cl         1.68622       -0.93019        2.67810
Cl        -0.92547        0.79534        2.82666
P         -1.10256        1.14178       -0.27959
P          2.24324       -0.11468       -0.38355
C          3.24217        1.47937       -0.12833
C          3.59366        1.62314        1.35422
C          4.51178        1.44070       -0.97123
C          3.31798       -1.66762       -0.14059
C          4.15177       -1.94443       -1.39861
C          1.45076       -0.39797       -2.07216
C          1.52683        0.77195       -3.03096
C         -1.12433       -0.17903       -1.52679
C          0.03144       -0.93273       -2.00856
C         -0.47627       -2.00055       -2.87209
C         -1.92134       -1.90214       -2.92306
C         -2.31767       -0.78481       -2.08738
C          2.38776        2.67601       -0.52317
H          2.70123        1.59871        1.97944
H          4.26470        0.84097        1.69839
H          4.29051        1.25358       -2.02093
H          5.19789        0.66937       -0.62532
C          4.25635       -1.54382        1.05582
H          4.91933       -2.69147       -1.18962
H          4.65443       -1.04864       -1.75809
H          2.05744       -1.20492       -2.49329
H          0.87345        1.57646       -2.70184
H          1.18295        0.48399       -4.02656
H          2.53931        1.16023       -3.13495
H          0.13886       -2.68609       -3.45760
H         -2.59118       -2.54190       -3.50164
Pd         0.51358        0.25897        1.17969
H         -3.33798       -0.45016       -1.88789
C          2.34588       -2.81624        0.08602
H          3.54798       -2.34403       -2.21248
H          3.72159       -1.24489        1.95487
H          4.73278       -2.50231        1.26681
H          5.05539       -0.82943        0.86585
H          1.82762       -2.69835        1.03618
H          1.60319       -2.86417       -0.71164
H          2.87139       -3.77283        0.11498
H          4.09474        2.57504        1.53747
H          5.04146        2.39278       -0.91001
H          2.15430        2.68339       -1.58461
H          1.45621        2.67973        0.03990
H          2.90624        3.61102       -0.30416
C         -2.77259        1.22675        0.41944
C         -3.19874        2.16448        1.32701
C         -4.53238        1.87816        1.61822
C         -4.86850        0.77630        0.87157
O         -3.79788        0.36655        0.13084
H         -2.60326        2.95472        1.75334
H         -5.17200        2.41452        2.29998
H         -5.83585        0.28945        0.86171
C         -0.72704        2.75866       -0.98032
C         -0.67474        3.91099       -0.23523
C         -0.36131        4.95068       -1.11176
C         -0.23580        4.38795       -2.35814
O         -0.45394        3.04135       -2.29082
H         -0.82737        3.98739        0.82917
H         -0.24114        5.99157       -0.85944
H          0.00331        4.91956       -3.27083
Fe        -1.30002       -2.11455       -0.96568
C         -2.99913       -2.79632       -0.00905
C         -2.19593       -2.00162        0.89881
C         -0.89603       -2.62571        1.00952
C         -0.88320       -3.80056        0.15920
C         -2.18523       -3.90536       -0.47363
H         -4.03636       -2.59524       -0.28604
H         -2.51529       -1.09789        1.42071
H         -0.09489       -2.28488        1.66715
H         -0.06125       -4.51186        0.05366
H         -2.50655       -4.69626       -1.15514
