111
-148.55682877
P         -2.56730       -2.20803       -0.58074
P          0.05023       -0.39728       -0.44256
C         -1.56956       -1.92910       -2.07185
C         -0.42236       -1.16911       -2.00081
C         -3.37379       -3.87220       -0.65312
C         -3.16374       -4.63549        0.63580
C         -1.95910       -2.47160       -3.28021
H         -2.86572       -3.05119       -3.33707
C         -1.19111       -2.26005       -4.41220
H         -1.49511       -2.68497       -5.35490
C         -0.03743       -1.50419       -4.33552
H          0.56093       -1.33889       -5.21634
C          0.34557       -0.95328       -3.12599
H          1.24078       -0.35612       -3.05116
Pd        -1.22315       -1.48983        1.15251
Cl        -2.77504       -2.17353        2.61616
Cl         0.21541       -0.74175        2.70553
C         -4.84938       -3.52226       -0.93805
C         -4.05909       -1.11704       -0.50479
H         -3.62089       -5.62705        0.59497
H         -2.10087       -4.76027        0.85593
H         -3.61248       -4.10112        1.47462
H         -5.50018       -4.29646       -0.50571
H         -5.03842       -3.54811       -2.02132
H         -3.96145       -0.51800        0.41053
C         -5.22607       -2.11920       -0.38357
C         -4.13238       -0.21776       -1.71999
H         -2.92081       -4.41409       -1.49408
H         -6.10760       -1.72018       -0.90605
H         -5.52603       -2.21509        0.67038
H         -5.00861        0.43401       -1.68493
H         -3.24426        0.41404       -1.80082
H         -4.19731       -0.81125       -2.63384
C         -1.15705        3.99788       -0.40368
C         -0.22869        3.52260       -1.36454
C          0.11832        2.18180       -1.33364
C         -0.47385        1.31702       -0.45040
C         -1.45554        1.75117        0.40194
C         -1.84877        3.07815        0.42470
O         -1.35967        5.39410       -0.24076
C          0.42431        4.43996       -2.41022
H          0.87584        1.79571       -1.99356
H         -1.90148        1.04412        1.07740
C         -2.97872        3.50359        1.37520
C          4.49313       -0.70780        0.50631
C          3.75858        0.44085        0.89592
C          2.40769        0.48600        0.59598
C          1.80554       -0.51554       -0.11881
C          2.53084       -1.58183       -0.58206
C          3.88814       -1.68623       -0.32422
O          5.81909       -0.89735        0.97853
C          4.38693        1.61163        1.66737
H          1.79591        1.30384        0.93633
H          2.01662       -2.33962       -1.14733
C          4.67520       -2.86226       -0.92381
C         -0.51924        5.58953       -2.80831
C          1.73629        5.00387       -1.84433
C          0.74156        3.65183       -3.70162
C         -3.99804        2.35611        1.55939
C         -2.38035        3.85350        2.74605
C         -3.75773        4.70608        0.81219
C         -0.47738        5.99817        0.69706
H         -0.08287        6.19879       -3.59943
H         -1.47060        5.19811       -3.16705
H         -0.72487        6.24433       -1.96526
H          1.56147        5.57175       -0.93352
H          2.42929        4.19796       -1.60513
H          2.22121        5.66234       -2.56453
H          1.52929        2.91687       -3.54315
H         -0.14438        3.13209       -4.06564
H          1.08410        4.32213       -4.48964
H         -4.86113        2.69402        2.13239
H         -4.35707        1.99977        0.59445
H         -3.56744        1.51451        2.09971
H         -1.66946        4.67277        2.66794
H         -3.15925        4.14859        3.44859
H         -1.85367        2.99668        3.16577
H         -4.59925        4.96359        1.45485
H         -3.12523        5.58646        0.73118
H         -4.14543        4.48087       -0.18078
H         -1.05439        6.45301        1.50206
H          0.20296        5.25415        1.11358
H          0.09847        6.78201        0.20525
C          5.89701       -1.60071        2.21209
C          5.86777        1.79693        1.29024
C          3.66746        2.93707        1.32597
C          4.25041        1.35323        3.17549
C          6.13417       -2.46401       -1.21251
C          4.63358       -4.05100        0.04811
C          4.05527       -3.30248       -2.26981
H          6.46129        0.93149        1.57373
H          5.97496        1.93737        0.21516
H          6.29367        2.66643        1.79031
H          4.18763        3.78555        1.76987
H          3.63497        3.09150        0.24809
H          2.64709        2.95432        1.70602
H          4.76232        0.43906        3.46644
H          4.67296        2.17502        3.75294
H          3.20210        1.24757        3.45394
H          6.66700       -2.21816       -0.29734
H          6.67334       -3.27639       -1.69914
H          6.17197       -1.59262       -1.86538
H          5.08219       -3.79392        1.00463
H          3.60531       -4.35862        0.23663
H          5.17325       -4.90629       -0.35770
H          3.07328       -3.75309       -2.13405
H          4.68298       -4.04638       -2.75992
H          3.95296       -2.45360       -2.94546
H          6.49949       -2.49968        2.08283
H          6.37838       -0.97323        2.96195
H          4.89918       -1.87701        2.55537
