59
-75.81249270
Cl         1.61308        0.67159        2.27136
P          1.61333       -0.06777       -0.85187
P         -1.64859       -0.09124       -0.79196
C          0.57975        0.32442       -2.32920
H          0.31832        1.38518       -2.30894
H          1.17844        0.14860       -3.22829
C         -0.65489       -0.53087       -2.28644
H         -0.38825       -1.58914       -2.22604
H         -1.28513       -0.39892       -3.17165
C          2.51384       -1.65492       -1.20004
H          2.30593       -1.85518       -2.25986
C          3.07074        1.06101       -0.65524
H          3.20331        1.19416        0.42538
C         -2.96486       -1.34683       -0.44691
H         -3.32789       -1.13197        0.56590
C         -2.78054        1.30768       -1.25251
H         -2.31120        1.82599       -2.09758
C          3.99895       -1.28614       -1.03421
H          4.33851       -1.57493       -0.03234
H          4.61826       -1.87183       -1.73028
C          4.23328        0.23473       -1.23170
H          4.32728        0.45667       -2.30376
H          5.18693        0.54884       -0.78044
C         -4.02951       -0.95106       -1.48294
H         -3.78356       -1.44296       -2.43537
H         -5.01461       -1.34946       -1.19369
C         -4.08570        0.59181       -1.68618
H         -4.91973        1.00172       -1.09987
H         -4.32688        0.83290       -2.73207
C          2.03504       -2.83091       -0.35083
H          2.53381       -3.74724       -0.69613
H          0.96888       -2.99370       -0.55524
C          2.88289        2.41742       -1.32389
H          3.84533        2.94783       -1.33446
H          2.62897        2.26149       -2.38034
C         -2.49663       -2.79567       -0.53104
H         -3.37560       -3.45269       -0.58830
H         -1.96496       -2.94778       -1.47828
C         -3.00500        2.27963       -0.09607
H         -3.86203        2.92430       -0.33710
H         -3.31398        1.70616        0.78796
C          2.25444       -2.67005        1.14756
H          1.78182       -3.47387        1.71692
H          1.84556       -1.72929        1.51422
H          3.31367       -2.67799        1.40781
C          1.82823        3.27211       -0.64152
H          1.70117        4.24027       -1.13120
H          2.08692        3.46072        0.40214
H          0.85989        2.77330       -0.64375
C         -1.62623       -3.20285        0.64737
H         -1.26500       -4.22991        0.55841
H         -2.17549       -3.12730        1.58776
H         -0.75635       -2.55332        0.74006
C         -1.79922        3.14454        0.23201
H         -1.46361        3.70371       -0.64336
H         -2.01830        3.86838        1.02031
H         -0.96033        2.54256        0.57802
Cl        -1.59778        0.19551        2.38273
Pd         0.00527        0.09589        0.81415
