171
-217.84496770
P         -1.57480        0.37175       -0.44870
P          1.62309       -0.35473       -0.29887
C         -0.82413        1.38363       -1.72833
C          1.01511       -1.27690       -1.71722
C          0.03591        0.82217       -2.66485
C          0.68254        1.66956       -3.58509
C          0.41061        3.02728       -3.56163
C         -0.47168        3.55985       -2.64564
C         -1.07942        2.73307       -1.72108
C          1.25923       -2.62777       -1.76993
C          0.74747       -3.38796       -2.80297
C         -0.02549       -2.78748       -3.77372
C         -0.28334       -1.42735       -3.74040
C          0.26244       -0.64791       -2.70224
Cl         1.44485        0.29144        2.90995
Cl        -1.73833       -0.48697        2.72970
C         -1.11985       -0.81560       -4.80948
C          1.64124        1.13225       -4.58962
H         -0.68124        4.61703       -2.64609
H         -1.75683        3.14201       -0.98875
H          1.85519       -3.09191       -1.00130
H          0.94806       -4.44596       -2.84704
H          0.90055        3.67001       -4.27353
H         -0.43891       -3.37774       -4.57412
C         -3.70432       -3.36067       -1.85693
C         -2.78914       -3.45796       -0.81571
C         -2.12791       -2.30181       -0.42616
C         -2.37631       -1.10860       -1.05685
C         -3.28426       -1.02651       -2.08359
C         -3.97194       -2.15964       -2.50357
H         -4.24133       -4.23738       -2.16632
H         -1.42807       -2.32774        0.39146
H         -3.46007       -0.06764       -2.54066
C         -4.50826        2.72983        2.08205
C         -3.15349        3.02660        2.17810
C         -2.27590        2.32147        1.36577
C         -2.73839        1.34575        0.51820
C         -4.07830        1.05851        0.44323
C         -4.99510        1.75388        1.22087
H         -5.20787        3.25875        2.70145
H         -1.21743        2.51380        1.41723
H         -4.40107        0.27249       -0.21572
C          4.32549       -2.86570        2.34083
C          2.99078       -3.23154        2.21018
C          2.19120       -2.47101        1.36786
C          2.70355       -1.37868        0.71321
C          4.01899       -1.02047        0.86945
C          4.86217       -1.76511        1.68373
H          4.96854       -3.44318        2.97777
H          1.15304       -2.72113        1.23121
H          4.37891       -0.14423        0.36073
C          3.80582        3.50324       -1.18792
C          2.76535        3.51727       -0.26681
C          2.08242        2.32892       -0.04675
C          2.44628        1.18171       -0.70685
C          3.48337        1.18080       -1.60654
C          4.18658        2.35155       -1.86634
H          4.34997        4.40917       -1.37687
H          1.26664        2.29116        0.65404
H          3.74461        0.25534       -2.09098
Pd        -0.06844       -0.09717        1.28441
C         -2.79059       -4.57443        1.42979
C         -2.50442       -4.76982       -0.07163
C         -1.02747       -5.15020       -0.27055
C         -3.38280       -5.92406       -0.59025
H         -3.82732       -4.27842        1.58820
H         -2.61303       -5.49572        1.98422
H         -2.15481       -3.80127        1.85901
H         -0.36885       -4.36098        0.08842
H         -0.78288       -6.06559        0.26793
H         -0.81196       -5.31110       -1.32621
H         -3.19440       -6.11675       -1.64626
H         -3.17261       -6.84430       -0.04527
H         -4.44144       -5.69872       -0.46249
C         -6.41403       -2.44632       -2.97037
C         -5.04892       -2.10696       -3.59678
C         -4.71938       -3.12990       -4.70040
C         -5.14119       -0.70831       -4.23768
H         -6.41206       -3.44624       -2.53781
H         -6.66006       -1.74040       -2.17758
H         -7.20725       -2.40595       -3.71666
H         -3.73898       -2.93326       -5.13201
H         -4.71436       -4.14735       -4.31169
H         -5.45516       -3.08636       -5.50326
H         -5.42105        0.04400       -3.50048
H         -4.19154       -0.41678       -4.68480
H         -5.89536       -0.69263       -5.02437
C         -3.70697        4.69782        4.01813
C         -2.59277        4.05359        3.17171
C         -1.86148        5.16396        2.39744
C         -1.60506        3.34593        4.11991
H         -4.42250        5.22617        3.38836
H         -4.24320        3.94629        4.59727
H         -3.29018        5.41962        4.72047
H         -2.53736        5.65866        1.70019
H         -1.46275        5.91758        3.07631
H         -1.02953        4.75771        1.82586
H         -2.10002        2.53611        4.65528
H         -0.76690        2.91619        3.57290
H         -1.20126        4.04185        4.85484
C         -6.95291        0.94514        2.55812
C         -6.49853        1.44644        1.17539
C         -6.82444        0.36066        0.13001
C         -7.27143        2.72540        0.80428
H         -8.01427        0.69755        2.55457
H         -6.39793        0.05172        2.84378
H         -6.78837        1.70008        3.32606
H         -6.51584        0.67255       -0.86767
H         -6.32473       -0.57792        0.36932
H         -7.89584        0.16335        0.09765
H         -8.34185        2.52985        0.74244
H         -7.11925        3.51032        1.54409
H         -6.94172        3.10707       -0.16186
C          1.02021       -4.08142        3.53017
C          2.39359       -4.44876        2.93062
C          3.30280       -4.92712        4.07951
C          2.22615       -5.59231        1.91618
H          0.29262       -3.84620        2.75524
H          0.61673       -4.90779        4.11494
H          1.10549       -3.21418        4.18459
H          2.83406       -5.74298        4.62965
H          4.25683       -5.29534        3.70347
H          3.49735       -4.11834        4.78373
H          1.58853       -5.28737        1.08777
H          3.19083       -5.88446        1.50168
H          1.77795       -6.46886        2.38367
C          7.23068       -2.57303        1.48735
C          6.33554       -1.38683        1.89071
C          6.56350       -1.04179        3.37343
C          6.73312       -0.16601        1.03672
H          8.28512       -2.32195        1.60133
H          7.02987       -3.44967        2.10192
H          7.05957       -2.84716        0.44648
H          6.34144       -1.89311        4.01585
H          7.59794       -0.74879        3.55196
H          5.92030       -0.21656        3.67856
H          7.78429        0.08258        1.18204
H          6.58455       -0.36619       -0.02427
H          6.14733        0.71193        1.30867
C          2.12694        4.47155        1.97608
C          2.34302        4.78944        0.48227
C          1.03413        5.31220       -0.12988
C          3.41622        5.89073        0.37883
H          1.88201        5.37456        2.53497
H          1.31160        3.76548        2.12382
H          3.02732        4.03888        2.41150
H          0.25302        4.55536       -0.07598
H          0.68320        6.20208        0.39232
H          1.17721        5.56959       -1.17904
H          3.13443        6.76163        0.97057
H          4.37755        5.53370        0.74802
H          3.54312        6.22486       -0.65050
C          5.16460        3.47073       -3.89498
C          5.38991        2.39138       -2.81921
C          5.60282        1.03668       -3.52267
C          6.65742        2.72579       -2.01139
H          5.99383        3.49434       -4.60187
H          4.25107        3.27601       -4.45503
H          5.07923        4.46229       -3.45245
H          6.44719        1.08647       -4.21005
H          5.81396        0.24803       -2.80073
H          4.72379        0.75047       -4.09916
H          7.53634        2.74893       -2.65539
H          6.57172        3.69802       -1.52725
H          6.82727        1.98034       -1.23503
H         -1.96710       -1.45654       -5.05363
H          2.50503        1.78931       -4.69190
H         -0.54016       -0.66831       -5.72165
H         -1.51738        0.15212       -4.50063
H          1.17103        1.04522       -5.56997
H          2.01006        0.14681       -4.30179
