171
-217.84464326
P         -1.63756        0.40976       -0.47013
P          1.60053       -0.32446       -0.21329
C         -0.82443        1.43823       -1.70257
C          1.02221       -1.22628       -1.65173
C          0.09234        0.89750       -2.59843
C          0.79884        1.76750       -3.45215
C          0.53585        3.12620       -3.40497
C         -0.40084        3.63907       -2.53363
C         -1.07305        2.78951       -1.67776
C          1.26747       -2.57572       -1.71856
C          0.80989       -3.31097       -2.79444
C          0.09487       -2.68559       -3.79395
C         -0.16255       -1.32526       -3.74400
C          0.32175       -0.57223       -2.65796
Cl         1.32677        0.39746        2.95247
Cl        -1.79964       -0.15189        2.80077
C         -0.91421       -0.67079       -4.84953
C          1.83833        1.26523       -4.39262
H         -0.60051        4.69796       -2.51161
H         -1.79818        3.18594       -0.98632
H          1.82261       -3.05467       -0.92799
H          1.01332       -4.36763       -2.85359
H          1.07985        3.78556       -4.06024
H         -0.26896       -3.25649       -4.63150
C         -3.59603       -3.41785       -1.88643
C         -2.67346       -3.46972       -0.84852
C         -2.06275       -2.28379       -0.46450
C         -2.36665       -1.10327       -1.09593
C         -3.28379       -1.06725       -2.11791
C         -3.92457       -2.23000       -2.53091
H         -4.08188       -4.32465       -2.19034
H         -1.35766       -2.27741        0.34913
H         -3.51679       -0.12164       -2.57823
C         -4.67241        2.68961        2.01558
C         -3.34577        3.10232        2.03104
C         -2.44439        2.41562        1.22909
C         -2.85503        1.35259        0.46331
C         -4.16771        0.95030        0.47010
C         -5.10787        1.61897        1.24462
H         -5.38878        3.20014        2.63115
H         -1.40333        2.69203        1.22581
H         -4.44798        0.09569       -0.11943
C          4.17894       -2.99802        2.40171
C          2.80476       -3.20509        2.38668
C          2.03393       -2.39625        1.56075
C          2.61636       -1.39748        0.81965
C          3.97199       -1.18989        0.87197
C          4.78537       -1.99214        1.65912
H          4.78737       -3.63995        3.01000
H          0.96789       -2.52925        1.50309
H          4.40323       -0.38796        0.29980
C          3.99428        3.36413       -1.25371
C          2.89775        3.49514       -0.41073
C          2.17190        2.35038       -0.10744
C          2.52154        1.14314       -0.65777
C          3.59113        1.03411       -1.51222
C          4.35941        2.15009       -1.82235
H          4.59437        4.23176       -1.45643
H          1.33388        2.38718        0.56660
H          3.82494        0.06735       -1.92512
Pd        -0.14352        0.02572        1.28924
C         -0.84931       -5.08731       -0.26562
C         -2.34314       -4.76315       -0.09002
C         -3.16454       -5.95887       -0.60888
C         -2.66378       -4.56522        1.40402
H         -0.57139       -5.97623        0.30038
H         -0.61950       -5.27085       -1.31439
H         -0.22370       -4.26316        0.07257
H         -4.23347       -5.77985       -0.49426
H         -2.95605       -6.15147       -1.66113
H         -2.92017       -6.86459       -0.05392
H         -2.08746       -3.74539        1.83026
H         -3.71960       -4.33349        1.54236
H         -2.43769       -5.46542        1.97518
C         -5.61283       -3.54632       -3.91553
C         -5.00047       -2.16161       -3.62659
C         -4.38013       -1.62741       -4.92835
C         -6.12882       -1.21979       -3.16880
H         -4.85279       -4.24785       -4.25910
H         -6.08968       -3.95832       -3.02631
H         -6.37277       -3.47759       -4.69387
H         -3.58924       -2.29174       -5.27450
H         -5.12884       -1.55866       -5.71740
H         -3.95569       -0.63458       -4.78570
H         -6.57542       -1.58000       -2.24243
H         -5.75580       -0.21117       -2.99499
H         -6.91578       -1.15873       -3.92031
C         -1.65410        3.78966        3.75316
C         -2.84677        4.26520        2.89960
C         -3.94475        4.78010        3.85007
C         -2.40623        5.42017        1.98380
H         -0.81411        3.48213        3.13248
H         -1.30421        4.58371        4.41239
H         -1.93935        2.93794        4.37024
H         -4.79321        5.17774        3.29368
H         -4.30094        3.98351        4.50305
H         -3.56342        5.58166        4.48259
H         -1.62519        5.09898        1.29691
H         -3.24441        5.77992        1.38732
H         -2.02038        6.25681        2.56595
C         -7.48623        2.37075        0.94501
C         -6.57788        1.18057        1.30667
C         -6.89736        0.69477        2.73180
C         -6.86908        0.03372        0.31999
H         -8.53545        2.07586        0.95137
H         -7.36865        3.19126        1.65162
H         -7.24793        2.74783       -0.04940
H         -7.93100        0.35764        2.80743
H         -6.24885       -0.13641        3.00820
H         -6.75013        1.48985        3.46188
H         -6.27618       -0.84999        0.55528
H         -7.91932       -0.25502        0.35954
H         -6.64788        0.33905       -0.70201
C          0.64704       -4.16217        3.33128
C          2.17934       -4.31012        3.25042
C          2.73659       -4.23226        4.68559
C          2.51732       -5.67754        2.63343
H          0.18751       -4.30801        2.35592
H          0.21988       -4.90413        4.00568
H          0.36867       -3.17517        3.70072
H          2.25507       -4.96766        5.32993
H          3.80788       -4.42561        4.71253
H          2.56094       -3.24469        5.11176
H          2.08418       -6.48857        3.21858
H          2.12878       -5.74810        1.61749
H          3.59531       -5.83088        2.59028
C          6.54946       -0.29288        2.18885
C          6.29727       -1.72678        1.68552
C          6.86428       -1.88178        0.26211
C          7.03339       -2.70931        2.61609
H          6.09079        0.44480        1.53134
H          6.13108       -0.15654        3.18583
H          7.61679       -0.07793        2.23720
H          7.94071       -1.71170        0.24966
H          6.67566       -2.88461       -0.12056
H          6.40718       -1.17082       -0.42475
H          6.67418       -2.62209        3.64133
H          6.89587       -3.73915        2.28699
H          8.10418       -2.50593        2.62358
C          1.21511        4.81147        0.96200
C          2.54474        4.86386        0.18576
C          2.40158        5.89854       -0.94647
C          3.66308        5.29697        1.14945
H          1.28418        4.13799        1.81579
H          0.94827        5.79738        1.34228
H          0.40583        4.47156        0.31663
H          1.64298        5.58285       -1.66181
H          2.10826        6.87081       -0.55091
H          3.33752        6.03013       -1.48768
H          3.43793        6.26341        1.60008
H          3.78205        4.56892        1.95173
H          4.61772        5.38223        0.63129
C          5.73011        0.68614       -3.38977
C          5.62510        2.05411       -2.68654
C          6.85536        2.23745       -1.78003
C          5.61234        3.15243       -3.76773
H          5.82228       -0.12382       -2.66703
H          4.85542        0.49555       -4.01078
H          6.60857        0.64916       -4.03386
H          7.77879        2.16828       -2.35469
H          6.83736        3.20921       -1.28740
H          6.88085        1.47134       -1.00529
H          5.62495        4.14835       -3.32738
H          6.48517        3.06926       -4.41515
H          4.72349        3.07333       -4.39234
H         -1.56722        0.11549       -4.46800
H          2.76416        1.82846       -4.27500
H         -1.53283       -1.39056       -5.38556
H         -0.23291       -0.22175       -5.57273
H          1.51347        1.37163       -5.42856
H          2.06885        0.21413       -4.21479
