75
-122.81836862
P          1.84621       -0.56203       -0.01355
C          1.71034       -1.53739       -1.51866
C          1.76513       -2.90880       -1.41796
C          1.74856       -3.68381       -2.56380
C          1.68167       -3.07820       -3.80291
C          1.62423       -1.70202       -3.89902
C          1.63824       -0.93101       -2.75172
H          1.58406        0.14321       -2.81101
H          1.56324       -1.22883       -4.86521
H          1.66693       -3.68088       -4.69628
H          1.78992       -4.75791       -2.48825
H          1.83526       -3.36594       -0.44343
C          3.17665       -1.30631        0.94413
C          2.92289       -1.92916        2.14435
C          3.95842       -2.51916        2.84546
C          5.24035       -2.49142        2.33344
C          5.48790       -1.88130        1.11993
C          4.44984       -1.29159        0.42129
H          4.62370       -0.82995       -0.53820
H          6.48654       -1.86688        0.71526
H          6.04819       -2.95000        2.88005
H          3.76398       -2.99836        3.79089
H          1.91746       -1.94788        2.53268
C          2.21238        1.15614       -0.40945
C          3.36063        1.81232       -0.03222
C          3.52238        3.16402       -0.30275
C          2.48543        3.84975       -0.93438
C          1.32235        3.20884       -1.29931
C          1.18218        1.83583       -1.04162
O          0.00280        1.14808       -1.37137
C         -1.19572        1.81490       -1.06988
C         -1.35783        3.18265       -1.34232
C         -2.54624        3.80049       -1.02160
C         -3.58239        3.10053       -0.40441
C         -3.40181        1.75353       -0.12328
C         -2.22647        1.12106       -0.45473
P         -1.83955       -0.57714       -0.00019
C         -3.17296       -1.27877        0.98530
C         -2.96135       -1.72160        2.27070
C         -4.00674       -2.27098        2.98973
C         -5.25675       -2.38006        2.41370
C         -5.46273       -1.94532        1.11964
C         -4.41466       -1.39626        0.40285
H         -4.55601       -1.06490       -0.61424
H         -6.43661       -2.03495        0.66713
H         -6.07228       -2.80701        2.97434
H         -3.84522       -2.61111        3.99945
H         -1.98252       -1.63061        2.71219
C         -1.68904       -1.60247       -1.46742
C         -1.66307       -2.96990       -1.31611
C         -1.63276       -3.78394       -2.43430
C         -1.63337       -3.22099       -3.69524
C         -1.65740       -1.84812       -3.84139
C         -1.68503       -1.03735       -2.72188
H         -1.69624        0.03571       -2.81916
H         -1.64947       -1.40816       -4.82500
H         -1.60773       -3.85420       -4.56698
H         -1.61068       -4.85521       -2.32023
H         -1.68091       -3.39373       -0.32424
Pd         0.00261       -0.06878        1.39777
Cl        -1.54874        1.02871        2.61937
Cl         1.61400        0.76896        2.74004
H         -4.17669        1.20505        0.38239
C         -4.86235        3.77631       -0.06228
H         -5.24988        3.41809        0.89239
H         -5.61729        3.58558       -0.82605
H         -4.73001        4.85592        0.01870
H         -2.66659        4.84668       -1.24090
S         -0.01446        4.07585       -2.07983
H          2.58496        4.90287       -1.12968
C          4.75152        3.87916        0.13203
H          4.12702        1.27976        0.50222
H          4.95642        4.73696       -0.50977
H          4.64552        4.24106        1.15546
H          5.62152        3.22217        0.09548
