72
-108.40033950
Cl         1.75422       -0.98961        2.58988
Cl        -0.97412        0.63890        2.79441
P         -1.08822        1.19198       -0.24931
P          2.26282       -0.16594       -0.38372
C          3.28992        1.40353       -0.08409
C          3.64680        1.48336        1.40138
C          4.55470        1.36942       -0.93455
C          3.32011       -1.74349       -0.23798
C          4.12108       -1.97013       -1.52640
C          1.40788       -0.36560       -2.05688
C          1.47860        0.85909       -2.94371
C         -1.16023       -0.12849       -1.49131
C         -0.01853       -0.89200       -1.98874
C         -0.54486       -1.94078       -2.86561
C         -1.99048       -1.82922       -2.89813
C         -2.36555       -0.72888       -2.02932
C          2.46546        2.63576       -0.43435
H          2.75267        1.47762        2.02490
H          4.28018        0.65962        1.71924
H          5.10460        2.30730       -0.84083
H          4.32208        1.22780       -1.98929
C          4.28475       -1.69187        0.94307
H          4.87246       -2.74701       -1.37554
H          4.64045       -1.06890       -1.84609
H          1.99367       -1.15366       -2.53908
H          1.06695        0.64993       -3.93341
H          2.50115        1.20983       -3.08263
H          0.88580        1.66918       -2.52393
H          0.05789       -2.62216       -3.46929
H         -2.67385       -2.45710       -3.47428
Pd         0.51664        0.21287        1.15874
H         -3.38063       -0.39191       -1.80711
C          2.33769       -2.88866       -0.04332
H          3.49075       -2.30720       -2.34829
H          3.76927       -1.44941        1.87006
H          4.76435       -2.66142        1.08507
H          5.08024       -0.96690        0.78166
H          1.84623       -2.81080        0.92521
H          1.57503       -2.88664       -0.82323
H          2.84969       -3.85248       -0.07510
H          4.18924        2.40553        1.61621
H          5.22662        0.57166       -0.62313
H          2.27644        2.71432       -1.50189
H          1.51147        2.62705        0.09026
H          2.98901        3.54680       -0.14019
C         -2.71718        1.32954        0.51207
C         -3.09312        2.41675        1.25946
C         -4.39866        2.18029        1.69261
C         -4.76396        0.95657        1.18604
O         -3.74050        0.42407        0.45567
H         -2.47970        3.27935        1.46794
H         -5.00024        2.82954        2.30755
H         -5.71981        0.46978        1.33557
C         -0.75007        2.80983       -0.96196
C         -1.12527        3.15724       -2.23566
C         -0.72040        4.47851       -2.43247
C         -0.12034        4.88292       -1.26474
O         -0.13273        3.86698       -0.35162
H         -1.64043        2.52151       -2.93851
H         -0.85731        5.06784       -3.32439
H          0.30515        5.86120       -1.07831
Fe        -1.32753       -2.10294       -0.98030
C         -2.23724       -3.87802       -0.54448
C         -3.01094       -2.76715       -0.01932
C         -2.16580       -2.01267        0.88562
C         -0.86974       -2.65390        0.92814
C         -0.90182       -3.78582        0.01930
H         -2.59433       -4.64267       -1.23827
H         -4.05747       -2.54824       -0.24347
H         -2.45181       -1.11859        1.44279
H         -0.04090       -2.34457        1.56721
H         -0.09365       -4.50365       -0.14100
