87
-129.18852859
P         -1.68453       -0.36438       -0.19043
P          1.64000        0.37223       -0.10520
C         -1.39835        0.95814       -1.38517
C          1.40564       -0.65786       -1.56127
C         -0.39964        0.88091       -2.35254
C         -0.17618        1.99259       -3.18800
C         -0.96670        3.11975       -3.04442
C         -1.95823        3.17415       -2.08945
C         -2.16563        2.09129       -1.25832
C          2.19101       -1.77600       -1.70264
C          2.02155       -2.61256       -2.78804
C          1.05656       -2.32268       -3.72871
C          0.25131       -1.20300       -3.60473
C          0.43094       -0.34434       -2.50230
Cl         1.28192        0.76529        3.06699
Cl        -1.44007       -0.97209        2.94126
H         -2.56342        4.05984       -1.98570
H         -2.93356        2.13190       -0.50407
H          2.94145       -1.99694       -0.96197
H          2.63627       -3.49125       -2.89490
H         -0.79322        3.96476       -3.68898
H          0.91542       -2.97553       -4.57334
C         -1.33635       -4.53726       -1.95203
C         -0.58340       -4.20416       -0.83425
C         -0.72625       -2.93191       -0.29518
C         -1.56997       -2.01578       -0.87962
C         -2.31035       -2.35168       -1.98851
C         -2.19620       -3.62077       -2.52528
H         -1.24256       -5.52413       -2.37209
C          0.33972       -5.18665       -0.20436
H         -0.17093       -2.66012        0.58609
H         -2.96160       -1.61685       -2.43513
H         -2.77233       -3.89108       -3.39497
C         -5.63200        0.26675        1.99257
C         -5.50054       -0.77661        1.09772
C         -4.30394       -0.96844        0.43322
C         -3.24899       -0.11760        0.66722
C         -3.37762        0.92137        1.56029
C         -4.57504        1.13367        2.23269
H         -6.55969        0.41197        2.51946
H         -6.32762       -1.44467        0.92130
H         -4.18511       -1.78496       -0.25972
H         -2.53565        1.56533        1.75497
C         -4.69534        2.23478        3.22639
C          5.16115       -1.15438        2.34810
C          5.23398        0.08513        1.74364
C          4.17057        0.55004        0.99321
C          3.04459       -0.22647        0.85237
C          2.96830       -1.46008        1.45727
C          4.03042       -1.94721        2.20893
H          5.98424       -1.51431        2.94163
H          6.11609        0.69288        1.86187
H          4.20941        1.52015        0.52576
H          2.07285       -2.05036        1.35545
C          3.92828       -3.26713        2.88849
C          2.04486        4.75663       -1.21153
C          2.86360        3.81828       -1.80899
C          2.75131        2.48446       -1.46252
C          1.82488        2.10510       -0.51997
C          1.01533        3.03770        0.08565
C          1.11471        4.38207       -0.25158
H          2.12041        5.79379       -1.49054
H          3.58272        4.12287       -2.55160
H          3.36864        1.73484       -1.93245
H          0.29292        2.72155        0.81920
C          0.20492        5.38453        0.36589
Pd        -0.05834       -0.02184        1.44495
C          0.89067        1.98217       -4.22740
C         -0.78440       -0.93249       -4.64025
H          1.43249        2.92892       -4.23760
H          1.61830        1.19052       -4.04565
H          0.46528        1.82887       -5.21986
H         -0.32856       -0.55678       -5.55707
H         -1.33367       -1.84201       -4.88749
H         -1.50998       -0.19427       -4.29700
H         -0.13675       -5.67565        0.64639
H          0.63967       -5.95910       -0.91387
H          1.24635       -4.69595        0.15332
H         -4.32354        1.91623        4.20123
H         -4.11926        3.10766        2.91571
H         -5.73343        2.54776        3.34668
H          4.91438       -3.69996        3.06260
H          3.42871       -3.16633        3.85300
H          3.35672       -3.97488        2.28614
H         -0.08766        5.08170        1.37235
H          0.68615        6.36073        0.43988
H         -0.70308        5.49950       -0.22776
