111
-148.55405767
P         -1.68934       -2.73430       -0.01223
P         -0.43349        0.13575       -0.52693
C         -1.61978       -2.05836       -1.69755
C         -1.13525       -0.78437       -1.90813
C         -0.53378       -4.16940        0.14231
C          0.58389       -3.85143        1.11276
C         -2.01847       -2.82553       -2.77357
H         -2.35592       -3.83585       -2.61041
C         -1.95819       -2.30293       -4.05401
H         -2.27412       -2.90082       -4.89327
C         -1.48807       -1.01983       -4.25864
H         -1.43660       -0.61517       -5.25601
C         -1.06483       -0.26125       -3.18202
H         -0.66299        0.72963       -3.32553
Pd        -1.31990       -0.89280        1.33161
Cl        -2.51450       -1.86082        2.96439
Cl        -0.86853        0.94654        2.54569
C         -1.45270       -5.32433        0.58956
C         -3.29534       -3.56789        0.38087
H          1.26076       -4.70034        1.23474
H          1.17275       -2.99557        0.77629
H          0.18094       -3.60264        2.09670
H         -1.35878       -5.44622        1.67734
H         -1.10921       -6.27626        0.15737
H         -3.49864       -3.34145        1.43549
C         -2.94296       -5.05862        0.23040
C         -4.43763       -3.08235       -0.48580
H         -0.14109       -4.35344       -0.86636
H         -3.13519       -5.36769       -0.80612
H         -3.61289       -5.67427        0.85009
H         -4.25513       -3.29917       -1.53847
H         -5.37815       -3.56550       -0.21155
H         -4.57211       -2.00225       -0.39269
C         -0.82925        4.66284       -0.77192
C          0.44796        4.05971       -0.92035
C          0.53435        2.68042       -0.82839
C         -0.58835        1.90890       -0.67796
C         -1.83495        2.47707       -0.66080
C         -1.99461        3.85084       -0.74897
O         -0.93396        6.06250       -0.56630
C          1.74374        4.84615       -1.18185
H          1.49282        2.19075       -0.85852
H         -2.69139        1.83062       -0.56384
C         -3.42738        4.40519       -0.82505
C          3.76949       -1.41963        0.26911
C          3.17888       -0.49220        1.16526
C          1.90316       -0.03404        0.88578
C          1.25583       -0.39906       -0.26426
C          1.85856       -1.21991       -1.18028
C          3.13173       -1.71858       -0.96234
O          4.97603       -2.08043        0.62308
C          3.86643       -0.02667        2.45750
H          1.36756        0.57786        1.59079
H          1.30656       -1.48948       -2.06335
C          3.77316       -2.61328       -2.03397
C          2.53883        4.16380       -2.31721
C          1.47094        6.29211       -1.63135
C          2.60093        4.85644        0.09446
C         -4.23863        3.58954       -1.85612
C         -4.09645        4.28153        0.55391
C         -3.46518        5.87289       -1.28546
C         -0.87439        6.42109        0.80424
H          3.42365        4.74518       -2.57526
H          2.87726        3.16855       -2.03385
H          1.92559        4.06958       -3.21296
H          0.80722        6.30720       -2.49512
H          1.00019        6.86939       -0.83918
H          2.39582        6.80006       -1.90367
H          2.84411        3.84145        0.40608
H          3.53657        5.39070       -0.06852
H          2.07740        5.33939        0.91718
H         -5.23585        4.00938       -1.98557
H         -3.74291        3.59557       -2.82647
H         -4.36143        2.55297       -1.54694
H         -5.12453        4.64124        0.52179
H         -4.11364        3.24429        0.88693
H         -3.56186        4.86090        1.30407
H         -4.49041        6.21407       -1.42707
H         -2.99931        6.52806       -0.55329
H         -2.93287        5.99373       -2.22829
H         -1.67194        5.92538        1.35514
H          0.08232        6.12066        1.22798
H         -0.98726        7.50131        0.89874
C          4.78571       -3.29601        1.33716
C          5.39560        0.02255        2.28871
C          3.41022        1.40209        2.83206
C          3.48598       -0.97731        3.60296
C          3.39064       -4.07733       -1.76771
C          3.27031       -2.22321       -3.44286
C          5.30437       -2.45574       -2.04526
H          5.80686       -0.96519        2.09743
H          5.66831        0.66502        1.45212
H          5.87645        0.41136        3.18597
H          3.98433        1.78258        3.67652
H          3.55347        2.08494        1.99554
H          2.36090        1.42927        3.12155
H          3.94655       -0.66436        4.53956
H          2.40574       -0.99332        3.74662
H          3.80631       -1.99523        3.39453
H          2.30873       -4.20383       -1.79709
H          3.82767       -4.73749       -2.51643
H          3.73478       -4.40419       -0.78955
H          2.21570       -2.46055       -3.57539
H          3.40794       -1.15720       -3.62213
H          3.81845       -2.76560       -4.21290
H          5.58137       -1.41235       -2.19223
H          5.75278       -3.04209       -2.84688
H          5.74504       -2.78851       -1.10896
H          3.72264       -3.49181        1.48049
H          5.23546       -4.12004        0.78358
H          5.27674       -3.23145        2.30799
