171
-217.84334897
P         -1.56720        0.30913       -0.45089
P          1.64704       -0.36577       -0.28796
C         -0.83334        1.27378       -1.77156
C          1.04087       -1.36446       -1.65457
C          0.00927        0.66651       -2.69421
C          0.61844        1.46434       -3.68104
C          0.33481        2.81957       -3.72702
C         -0.52580        3.39691       -2.81744
C         -1.10334        2.61866       -1.83348
C          1.30933       -2.71194       -1.64186
C          0.78266       -3.53677       -2.61579
C         -0.03104       -3.00373       -3.59254
C         -0.31000       -1.64781       -3.62838
C          0.25357       -0.80156       -2.65336
Cl         1.50099        0.36758        2.87697
Cl        -1.67508       -0.35188        2.82477
C         -1.22058       -1.12377       -4.68365
C          1.53097        0.86310       -4.69145
H         -0.74649        4.45037       -2.87296
H         -1.77208        3.06064       -1.11258
H          1.93403       -3.12402       -0.86647
H          0.99761       -4.59285       -2.60391
H          0.79402        3.42452       -4.49054
H         -0.46507       -3.64505       -4.34112
C         -3.75853       -3.35926       -1.92543
C         -2.76741       -3.51433       -0.96469
C         -2.10225       -2.37541       -0.52836
C         -2.40938       -1.14801       -1.05989
C         -3.37697       -1.01325       -2.02528
C         -4.08037       -2.12484       -2.47511
H         -4.30926       -4.22555       -2.24239
H         -1.34266       -2.43370        0.23172
H         -3.58259       -0.03070       -2.41515
C         -4.43181        2.78659        2.05502
C         -3.07518        3.08564        2.09668
C         -2.22240        2.34482        1.28931
C         -2.70787        1.32873        0.50346
C         -4.04977        1.03966        0.48506
C         -4.94365        1.77364        1.25387
H         -5.11263        3.34295        2.67131
H         -1.16356        2.54110        1.29885
H         -4.39358        0.22197       -0.12202
C          4.29969       -2.68151        2.57785
C          2.99099       -3.10550        2.38381
C          2.21433       -2.41124        1.46613
C          2.72424       -1.32968        0.79065
C          4.01602       -0.91668        1.00562
C          4.83494       -1.59218        1.90214
H          4.91964       -3.19744        3.28650
H          1.19058       -2.69956        1.29652
H          4.37223       -0.04575        0.48524
C          3.82166        3.45808       -1.34721
C          2.75704        3.50891       -0.45530
C          2.07901        2.32710       -0.18817
C          2.46889        1.14966       -0.77616
C          3.53045        1.11356       -1.64716
C          4.23365        2.27405       -1.94893
H          4.35030        4.36422       -1.57085
H          1.24606        2.31886        0.49355
H          3.82264        0.16986       -2.07676
Pd        -0.05479       -0.07438        1.29989
C         -1.24765       -4.87199        0.55033
C         -2.46348       -4.90581       -0.39430
C         -2.15264       -5.87905       -1.54714
C         -3.68682       -5.40571        0.39382
H         -1.01461       -5.87083        0.91890
H         -0.36753       -4.49299        0.03198
H         -1.44053       -4.23893        1.41591
H         -1.89117       -6.86547       -1.16451
H         -3.00791       -5.99740       -2.21103
H         -1.31553       -5.51547       -2.14191
H         -3.49907       -6.38937        0.82387
H         -3.92584       -4.72079        1.20721
H         -4.56417       -5.48184       -0.24768
C         -5.00407       -3.00750       -4.64744
C         -5.22732       -2.01451       -3.49032
C         -5.32555       -0.59444       -4.08132
C         -6.55285       -2.34501       -2.78085
H         -4.99113       -4.03731       -4.29328
H         -5.79890       -2.92425       -5.38852
H         -4.05737       -2.81472       -5.14991
H         -4.39487       -0.30814       -4.57060
H         -6.12129       -0.53886       -4.82402
H         -5.54870        0.13967       -3.30749
H         -6.54139       -3.35754       -2.37860
H         -6.72827       -1.65939       -1.95263
H         -7.39470       -2.26645       -3.46852
C         -1.78845        5.23504        2.18770
C         -2.48729        4.15380        3.02942
C         -1.46578        3.48837        3.97241
C         -3.57601        4.82745        3.88626
H         -2.49032        5.70041        1.49594
H         -1.36890        6.01552        2.82223
H         -0.97613        4.80828        1.60345
H         -1.04057        4.21495        4.66432
H         -1.93961        2.70002        4.55674
H         -0.64465        3.03828        3.41618
H         -4.31356        5.32945        3.26034
H         -4.09033        4.09751        4.51109
H         -3.13939        5.57691        4.54631
C         -7.23097        2.74002        0.88279
C         -6.44854        1.47009        1.26586
C         -6.85866        1.01058        2.67647
C         -6.81055        0.35696        0.26261
H         -8.30291        2.54460        0.85787
H         -7.05700        3.54488        1.59582
H         -6.92963        3.09448       -0.10281
H         -7.92053        0.76827        2.71523
H         -6.29794        0.12303        2.96910
H         -6.66538        1.78650        3.41634
H         -6.30997       -0.57775        0.51474
H         -7.88360        0.16605        0.26618
H         -6.52820        0.63904       -0.75153
C          3.32012       -4.79888        4.25662
C          2.38171       -4.29102        3.14489
C          2.12293       -5.43974        2.15514
C          1.05556       -3.85282        3.79808
H          3.55118       -4.00404        4.96563
H          2.85574       -5.61388        4.81171
H          4.25466       -5.17638        3.84231
H          1.46180       -5.12148        1.35110
H          3.05579       -5.77601        1.70293
H          1.66176       -6.29151        2.65469
H          0.62137       -4.66373        4.38243
H          1.21721       -3.00491        4.46330
H          0.32060       -3.55369        3.05274
C          6.35447       -0.67136        3.66527
C          6.27080       -1.13858        2.20112
C          6.69819        0.02648        1.28840
C          7.24117       -2.31252        1.97136
H          7.35869       -0.32467        3.90838
H          5.65971        0.14858        3.84648
H          6.10346       -1.47909        4.35188
H          7.72540        0.32575        1.49624
H          6.64375       -0.26585        0.24052
H          6.06440        0.90013        1.43959
H          8.27208       -2.00559        2.14712
H          7.02536       -3.14520        2.63948
H          7.16785       -2.67691        0.94682
C          3.35532        5.93164        0.05071
C          2.30950        4.81250        0.22185
C          2.10915        4.57283        1.73208
C          0.98685        5.27097       -0.41172
H          3.47321        6.20654       -0.99709
H          3.05227        6.82905        0.59005
H          4.32539        5.62163        0.43901
H          1.32148        3.84619        1.92315
H          3.02588        4.19815        2.18675
H          1.83339        5.49668        2.24023
H          0.61934        6.18208        0.06001
H          1.11991        5.47038       -1.47472
H          0.22235        4.50234       -0.31029
C          6.10961        3.59022       -3.06614
C          5.45522        2.20718       -2.87950
C          5.02512        1.68644       -4.26127
C          6.50153        1.25511       -2.27277
H          6.97303        3.52265       -3.72796
H          5.41023        4.29894       -3.50932
H          6.45594        3.99263       -2.11432
H          5.87936        1.61638       -4.93453
H          4.57654        0.69656       -4.18926
H          4.29771        2.35966       -4.71311
H          6.10158        0.24810       -2.16011
H          7.38669        1.19298       -2.90557
H          6.81456        1.60747       -1.29037
H         -0.76942       -1.21818       -5.67243
H          0.96816        0.44789       -5.52804
H         -1.46523       -0.07348       -4.52083
H         -2.15780       -1.67998       -4.68973
H          2.12654        0.06057       -4.25392
H          2.21685        1.60836       -5.09443
