100
-131.96494246
C         -3.13684       -2.80776       -1.47008
C         -1.96817       -3.40230       -0.81497
C         -2.81124       -1.48027       -1.85461
C         -1.41082       -1.17670       -1.43308
C         -0.57957       -0.30106       -2.32412
C         -0.91505       -2.43376       -0.76763
C          0.48497       -2.82050       -0.31677
C          1.07362       -3.89834       -1.20283
Cl        -0.57359        1.43315        2.62581
Cl         0.56210       -1.58414        2.72161
C          0.70790        1.27166       -4.26373
C          0.22039        0.02439       -4.60153
C          0.56236        1.73607       -2.96442
C         -0.41777       -0.74050       -3.65722
C         -0.04449        0.96642       -2.00123
H         -1.89411       -4.43123       -0.45804
H         -3.43673       -0.82803       -2.46839
H          1.19273       -3.53006       -2.22351
H          2.04737       -4.23370       -0.83926
H          0.42221       -4.77427       -1.25189
H          1.19668        1.88220       -5.00513
H          0.33029       -0.34209       -5.60934
H          0.92073        2.72127       -2.70992
H         -0.81877       -1.70232       -3.92786
H         -4.07304       -3.32597       -1.69394
P         -0.12338        1.71833       -0.36911
H          0.38613       -3.20997        0.70586
P          1.71282       -1.43914       -0.10241
H          1.67118       -0.83311       -2.39760
C          3.54114       -1.90502       -2.32501
C          2.49767       -0.95668       -1.70245
C          3.43437       -1.88674       -3.85393
H          3.55085       -2.81974        0.51831
C          4.01483       -0.97098        1.55231
C          3.02158       -2.02963        1.05334
H          4.28296       -0.33279        0.69192
C          3.42230       -0.07171        2.64003
H          1.05825        3.77859       -0.77268
H         -1.93953        2.67751        0.87861
C         -4.21493        2.50507       -0.77130
C         -2.84906        1.80061       -0.87880
C         -1.74083        2.60980       -0.19803
C         -1.66976        4.02525       -0.79306
C         -3.03115        4.74531       -0.70266
C         -4.14359        3.91935       -1.37495
H         -4.50408        2.57557        0.28459
H         -5.00161        1.90947       -1.25538
H         -2.58782        1.67031       -1.93664
H         -2.88344        0.78842       -0.46105
H         -0.89081        4.61627       -0.29416
H         -1.35737        3.94996       -1.84186
H         -3.28563        4.90480        0.35260
H         -2.96991        5.74977       -1.14458
H         -3.94089        3.84501       -2.45083
H         -5.11403        4.42917       -1.29297
C          3.76524        3.35966       -0.14512
C          2.62632        2.35347       -0.40881
C          1.24972        2.94833       -0.08273
C          1.21731        3.48311        1.35603
C          2.33362        4.51548        1.59935
C          3.71222        3.90103        1.29545
H          3.68117        4.19543       -0.85091
H          4.74208        2.89947       -0.35085
H          2.77551        1.45481        0.19865
H          2.65207        2.01951       -1.45333
H          0.22830        3.89578        1.59664
H          1.35348        2.64147        2.04461
H          2.17096        5.38489        0.95034
H          2.29247        4.90211        2.62729
H          3.90746        3.08172        1.99856
H          4.51348        4.63345        1.46838
H          3.32151       -2.92887       -1.98118
C          4.96648       -1.55838       -1.89013
H          2.53870       -2.51477        1.90136
C          5.29256       -1.63913        2.07338
H          2.94000        0.02809       -1.57547
H          3.62879       -0.88509       -4.23884
H          2.43869       -2.17974       -4.19093
H          4.15578       -2.56331       -4.31465
H          5.09712       -1.64466       -0.81355
H          5.69732       -2.21669       -2.36267
H          5.21757       -0.53541       -2.17258
H          2.57450        0.50732        2.28115
H          3.07611       -0.66748        3.48490
H          4.16268        0.63462        3.01870
H          6.02929       -0.89993        2.39183
H          5.06851       -2.27102        2.93340
H          5.75928       -2.27164        1.31705
Fe        -2.68304       -1.73573        0.17475
C         -2.51691       -1.90470        2.24048
C         -3.46086       -2.85490        1.68684
C         -4.52558       -2.12153        1.02641
C         -4.19192       -0.71247        1.09711
C         -2.95549       -0.58050        1.84393
H         -1.58588       -2.14349        2.75455
H         -3.41593       -3.94001        1.80928
H         -5.40927       -2.55282        0.55033
H         -4.80888        0.10604        0.71967
H         -2.43799        0.34945        2.08207
Pd         0.34955        0.00764        1.13261
