111
-148.55388191
P         -1.64392       -2.77425        0.07996
P         -0.43880        0.10173       -0.54649
C         -1.64047       -2.13374       -1.62157
C         -1.17979       -0.85904       -1.87906
C         -0.45754       -4.18468        0.23158
C          0.67415       -3.83026        1.17307
C         -2.06769       -2.93014       -2.66490
H         -2.38632       -3.94033       -2.46691
C         -2.06008       -2.43681       -3.95828
H         -2.39834       -3.05776       -4.77169
C         -1.61380       -1.15342       -4.20915
H         -1.60320       -0.77154       -5.21673
C         -1.16155       -0.36514       -3.16623
H         -0.77723        0.62663       -3.34699
Pd        -1.27957       -0.88554        1.35421
Cl        -2.49748       -1.74571        3.02891
Cl        -0.78093        0.99021        2.49564
C         -1.34349       -5.35015        0.71737
C         -3.22027       -3.62696        0.54347
H          1.36701       -4.66578        1.29763
H          1.24309       -2.97221        0.80923
H          0.28671       -3.56895        2.16000
H         -1.21492       -5.45956        1.80291
H         -0.99699       -6.30061        0.28439
H         -3.38778       -3.38884        1.60184
C         -2.84834       -5.11371        0.40106
C         -4.40149       -3.17228       -0.28683
H         -0.08303       -4.37775       -0.78217
H         -3.06736       -5.43966       -0.62493
H         -3.48863       -5.73177        1.04905
H         -4.55037       -2.09329       -0.20341
H         -4.25424       -3.40096       -1.34251
H         -5.32313       -3.66655        0.02867
C         -0.88014        4.62369       -0.80247
C          0.41308        4.04173       -0.81477
C          0.51089        2.66287       -0.73649
C         -0.60863        1.87289       -0.71558
C         -1.85967        2.42394       -0.80545
C         -2.02937        3.79661       -0.89219
O         -1.02408        6.02967       -0.66167
C          1.70070        4.87911       -0.86397
H          1.47220        2.18436       -0.67104
H         -2.70853        1.76166       -0.79073
C         -3.44938        4.36506       -1.04070
C          3.78477       -1.43099        0.18313
C          3.22750       -0.45442        1.05108
C          1.94147       -0.01150        0.79557
C          1.25683       -0.42555       -0.31564
C          1.83525       -1.27535       -1.22122
C          3.11493       -1.76635       -1.02376
O          4.95674       -2.13269        0.56607
C          3.95832        0.14085        2.26542
H          1.43427        0.63286        1.49367
H          1.26284       -1.57701       -2.08143
C          3.71977       -2.65256       -2.12500
C          1.49191        6.17153       -1.67378
C          2.14207        5.21559        0.56859
C          2.83764        4.09288       -1.55622
C         -4.35229        3.37904       -1.81654
C         -4.05373        4.58989        0.35371
C         -3.44170        5.68329       -1.83604
C         -1.11853        6.46905        0.68767
H          0.75813        6.82095       -1.20307
H          2.42129        6.73379       -1.76107
H          1.13862        5.94180       -2.67845
H          1.38338        5.79420        1.08972
H          2.31476        4.30525        1.14184
H          3.06529        5.79444        0.56739
H          2.51759        3.72644       -2.53126
H          3.71037        4.72778       -1.70740
H          3.16230        3.24197       -0.95925
H         -5.31940        3.83093       -2.03591
H         -3.89282        3.09573       -2.76317
H         -4.54607        2.47316       -1.24423
H         -5.06853        4.98021        0.28158
H         -4.08981        3.65519        0.91281
H         -3.46209        5.29629        0.93085
H         -4.45523        6.04994       -1.99673
H         -2.89088        6.46040       -1.31234
H         -2.97396        5.54107       -2.80966
H         -2.06643        6.98495        0.83959
H         -1.05283        5.61981        1.36910
H         -0.31217        7.17048        0.90115
C          4.67690       -3.29335        1.33187
C          5.46910       -0.14692        2.23895
C          3.78968        1.67663        2.25894
C          3.34710       -0.42619        3.55775
C          5.23999       -2.82863       -1.96680
C          3.03516       -4.02950       -2.10405
C          3.48343       -1.99324       -3.50195
H          5.66946       -1.21074        2.34149
H          5.90729        0.18646        1.29888
H          5.98080        0.36483        3.05370
H          4.35460        2.13330        3.07112
H          4.14902        2.09861        1.32084
H          2.74853        1.96933        2.38357
H          2.28238       -0.20219        3.61637
H          3.46154       -1.50728        3.60651
H          3.82850        0.00210        4.43643
H          5.48191       -3.38054       -1.06179
H          5.66174       -3.37673       -2.80899
H          5.73484       -1.85979       -1.90912
H          3.17846       -4.52667       -1.14666
H          1.96281       -3.93301       -2.27079
H          3.43808       -4.67671       -2.88258
H          2.42433       -1.93597       -3.74766
H          3.96921       -2.56298       -4.29372
H          3.88873       -0.98191       -3.51823
H          4.07185       -3.03331        2.19886
H          4.13152       -4.01754        0.72927
H          5.61443       -3.73821        1.66598
