111
-148.55532890
P         -2.51812       -2.01008       -1.17068
P          0.13059       -0.41002       -0.51042
C         -1.34934       -1.61712       -2.50063
C         -0.17655       -0.95924       -2.19908
C         -3.30769       -3.66642       -1.41344
C         -2.74892       -4.69116       -0.45052
C         -1.62832       -1.96042       -3.80807
H         -2.55574       -2.45654       -4.04272
C         -0.72356       -1.65077       -4.80908
H         -0.94034       -1.91850       -5.83034
C          0.45468       -0.99720       -4.50220
H          1.15756       -0.75446       -5.28207
C          0.72737       -0.64597       -3.19222
H          1.63429       -0.12069       -2.93602
Pd        -1.38769       -1.57274        0.79329
Cl        -3.15915       -2.39636        1.89338
Cl        -0.11438       -1.08151        2.57826
C         -4.80639       -3.36139       -1.23178
C         -4.01798       -0.92681       -1.16102
H         -1.67011       -4.80877       -0.57794
H         -2.92496       -4.38882        0.58274
H         -3.21645       -5.66843       -0.59171
H         -5.07830       -3.54544       -0.18324
H         -5.41557       -4.06226       -1.82264
H         -4.16501       -0.62140       -0.11631
C         -5.13935       -1.88694       -1.59970
C         -3.83292        0.28164       -2.05284
H         -3.10150       -3.96065       -2.45035
H         -5.27272       -1.80172       -2.68696
H         -6.10024       -1.57964       -1.15960
H         -3.61994       -0.02283       -3.07922
H         -4.72856        0.90694       -2.07012
H         -2.99749        0.89747       -1.71332
C         -1.10305        3.93514        0.05671
C         -0.99149        3.41041       -1.25690
C         -0.60953        2.08762       -1.40531
C         -0.41691        1.28350       -0.31317
C         -0.62796        1.75737        0.95381
C         -1.01241        3.06755        1.17496
O         -1.26168        5.33295        0.25165
C         -1.23642        4.26431       -2.51058
H         -0.44162        1.66910       -2.38174
H         -0.47202        1.07952        1.77490
C         -1.28889        3.52547        2.61493
C          4.43821       -0.77452        0.91195
C          3.89049        0.50340        0.62289
C          2.57505        0.56753        0.19644
C          1.84105       -0.56988       -0.01762
C          2.40368       -1.80899        0.13827
C          3.71593       -1.94724        0.56223
O          5.66205       -0.87709        1.62178
C          4.66413        1.82627        0.75353
H          2.09931        1.52153        0.04417
H          1.79654       -2.67637       -0.05979
C          4.30513       -3.36651        0.62596
C         -1.74160        3.38910       -3.68034
C         -2.31556        5.33111       -2.25104
C          0.07995        4.93393       -2.93312
C         -2.33411        4.65488        2.64985
C         -1.85993        2.35844        3.45368
C          0.02471        3.99587        3.25789
C         -0.03462        6.03884        0.38913
H         -2.02457        4.00810       -4.53144
H         -0.97556        2.69822       -4.02918
H         -2.61623        2.81150       -3.38333
H         -3.23936        4.86653       -1.90777
H         -1.99697        6.04093       -1.49163
H         -2.53547        5.89481       -3.15732
H          0.46124        5.58326       -2.14873
H          0.84302        4.18480       -3.14349
H         -0.05881        5.53629       -3.83055
H         -3.25411        4.34093        2.15790
H         -2.57566        4.93376        3.67520
H         -1.97325        5.54625        2.14313
H         -2.17998        2.70731        4.43511
H         -2.72209        1.91145        2.95945
H         -1.11887        1.57798        3.61889
H          0.75603        3.18807        3.27344
H          0.45989        4.82510        2.70499
H         -0.13812        4.32313        4.28440
H          0.81075        5.35762        0.28306
H          0.02651        6.81556       -0.37304
H          0.00598        6.51783        1.36719
C          5.47952       -0.89470        3.02788
C          6.18130        1.60782        0.88417
C          4.43811        2.67998       -0.51438
C          4.14661        2.60085        1.97736
C          3.69926       -4.11680        1.82372
C          3.95817       -4.12539       -0.67407
C          5.83917       -3.36003        0.74499
H          6.71694        2.55683        0.87786
H          6.42816        1.09749        1.81201
H          6.55436        1.00087        0.05996
H          3.39696        2.98024       -0.62126
H          5.03574        3.59060       -0.48087
H          4.72225        2.12418       -1.40749
H          3.08112        2.80891        1.88412
H          4.29436        2.03310        2.89396
H          4.66589        3.55288        2.08413
H          3.93973       -3.62032        2.76169
H          2.61374       -4.16562        1.74401
H          4.07864       -5.13690        1.87694
H          4.42893       -5.10810       -0.68749
H          2.88561       -4.27883       -0.77999
H          4.30774       -3.57337       -1.54609
H          6.28442       -2.77294       -0.05747
H          6.24179       -4.37124        0.69091
H          6.15969       -2.92925        1.69054
H          4.99174        0.02269        3.35311
H          4.85743       -1.74128        3.31335
H          6.45073       -0.97966        3.51580
