171
-217.84771788
P         -1.58094        0.44225       -0.32439
P          1.57548       -0.31381       -0.21325
C         -0.80728        1.48680       -1.57059
C          0.95548       -1.19195       -1.65157
C          0.03751        0.95482       -2.53948
C          0.70476        1.83527       -3.41345
C          0.47430        3.19693       -3.31113
C         -0.38760        3.70264       -2.36183
C         -1.01971        2.84169       -1.48701
C          1.17659       -2.54438       -1.73757
C          0.68749       -3.25951       -2.81320
C         -0.03410       -2.61086       -3.79307
C         -0.26998       -1.24763       -3.72334
C          0.24739       -0.51507       -2.63732
Cl         1.52438        0.41793        2.96178
Cl        -1.69749       -0.11436        2.93068
C         -1.04521       -0.58082       -4.80538
C          1.66310        1.33820       -4.43877
H         -0.56139        4.76424       -2.29589
H         -1.68380        3.23122       -0.73306
H          1.73633       -3.04159       -0.96175
H          0.86966       -4.31913       -2.88670
H          0.98576        3.86445       -3.98409
H         -0.42442       -3.16592       -4.62939
C         -3.49178       -3.38061       -1.80487
C         -2.61201       -3.44297       -0.73101
C         -2.01002       -2.26218       -0.31829
C         -2.27889       -1.07986       -0.96187
C         -3.15051       -1.03363       -2.02216
C         -3.78226       -2.19100       -2.46214
H         -3.98428       -4.27687       -2.13177
H         -1.34098       -2.25991        0.52500
H         -3.34639       -0.08250       -2.48749
C         -4.83673        2.66564        1.92540
C         -3.51603        3.05772        2.10910
C         -2.53041        2.38252        1.39951
C         -2.86280        1.35766        0.54854
C         -4.17283        0.98292        0.38343
C         -5.19078        1.63134        1.06757
H         -5.60269        3.17380        2.48036
H         -1.49089        2.63038        1.52844
H         -4.40532        0.16319       -0.27320
C          4.22598       -3.05850        2.25379
C          2.84791       -3.22622        2.32043
C          2.05361       -2.39847        1.53663
C          2.61907       -1.41623        0.76120
C          3.98057       -1.24615        0.73472
C          4.81576       -2.07031        1.47488
H          4.85138       -3.71728        2.82555
H          0.98301       -2.50275        1.54033
H          4.39995       -0.45639        0.13748
C          3.98679        3.35483       -1.28985
C          2.93550        3.48653       -0.39115
C          2.20577        2.34786       -0.07557
C          2.50419        1.14708       -0.66865
C          3.52653        1.03898       -1.57926
C          4.29975        2.14770       -1.90271
H          4.59375        4.21535       -1.50200
H          1.40358        2.38545        0.64056
H          3.71988        0.07843       -2.02608
Pd        -0.06039        0.07595        1.40883
C         -0.81912       -5.08145       -0.11689
C         -2.31352       -4.74400        0.02685
C         -3.13478       -5.92728       -0.51996
C         -2.66743       -4.55403        1.51439
H         -0.56234       -5.97464        0.45229
H         -0.56692       -5.26363       -1.16077
H         -0.19398       -4.26381        0.23726
H         -2.91648       -6.83851        0.03685
H         -4.20416       -5.73549       -0.43358
H         -2.90022       -6.11747       -1.56714
H         -2.46289       -5.46052        2.08375
H         -2.09409       -3.74304        1.96082
H         -3.72413       -4.31380        1.62959
C         -4.42208       -3.17750       -4.68349
C         -4.82946       -2.17789       -3.58483
C         -4.96855       -0.78048       -4.22012
C         -6.19506       -2.58112       -2.99799
H         -4.38458       -4.19640       -4.30034
H         -5.13359       -3.16017       -5.50888
H         -3.43780       -2.93533       -5.08206
H         -4.02315       -0.44315       -4.64238
H         -5.70352       -0.79330       -5.02484
H         -5.29910       -0.04602       -3.48622
H         -6.16192       -3.58391       -2.57348
H         -6.49203       -1.89338       -2.20631
H         -6.96916       -2.56796       -3.76504
C         -1.67306        4.49057        3.12037
C         -3.17997        4.16878        3.11358
C         -3.58683        3.70788        4.52475
C         -3.94736        5.45042        2.73970
H         -1.34244        4.81740        2.13518
H         -1.45037        5.29051        3.82628
H         -1.08588        3.62059        3.41400
H         -3.34343        4.46579        5.26907
H         -4.65695        3.51245        4.58317
H         -3.06444        2.78964        4.79281
H         -3.69242        5.76995        1.72937
H         -5.02478        5.29580        2.78044
H         -3.70297        6.26392        3.42259
C         -7.62722        1.99541        1.70995
C         -6.64015        1.16769        0.86526
C         -6.75983       -0.31123        1.27973
C         -7.01833        1.31950       -0.61993
H         -8.65067        1.65537        1.55211
H         -7.40878        1.90029        2.77343
H         -7.58498        3.05059        1.44050
H         -7.78388       -0.66671        1.16708
H         -6.11807       -0.94713        0.67079
H         -6.46821       -0.44318        2.32143
H         -6.37637        0.71078       -1.25532
H         -8.04876        1.01030       -0.79426
H         -6.91766        2.35670       -0.93892
C          2.92438       -4.29996        4.60089
C          2.23950       -4.31256        3.21956
C          2.44168       -5.68260        2.55170
C          0.73183       -4.07742        3.44163
H          2.85489       -3.31137        5.05434
H          2.45142       -5.01359        5.27537
H          3.97776       -4.56682        4.53107
H          1.96363       -5.70842        1.57262
H          3.50126       -5.89497        2.41131
H          2.01446       -6.48074        3.15852
H          0.32528       -4.80131        4.14765
H          0.54723       -3.08018        3.84105
H          0.17562       -4.18447        2.51288
C          6.81253       -2.01414       -0.04029
C          6.33323       -1.84580        1.41354
C          7.09530       -2.84886        2.30023
C          6.65248       -0.41980        1.90106
H          7.89066       -1.87323       -0.11501
H          6.57502       -3.01101       -0.41113
H          6.33597       -1.29021       -0.69986
H          6.79861       -2.75320        3.34454
H          6.91122       -3.87424        1.98010
H          8.16981       -2.67436        2.24555
H          7.72603       -0.23278        1.88542
H          6.17462        0.33071        1.27240
H          6.29818       -0.27428        2.92130
C          2.48197        5.91599       -0.84489
C          2.63798        4.84681        0.25325
C          3.80093        5.22493        1.18672
C          1.33513        4.80749        1.07555
H          1.69318        5.63785       -1.54293
H          2.22460        6.88304       -0.41317
H          3.40239        6.04231       -1.41324
H          3.92911        4.47252        1.96474
H          4.73830        5.29946        0.63631
H          3.61786        6.18428        1.67035
H          1.10889        5.78981        1.48991
H          0.49266        4.50648        0.45343
H          1.41598        4.11083        1.90964
C          5.48324        3.17630       -3.87779
C          5.52038        2.04757       -2.82899
C          5.55871        0.69813       -3.57358
C          6.79617        2.17662       -1.97781
H          4.56210        3.13812       -4.45778
H          5.54538        4.15859       -3.41177
H          6.31973        3.08912       -4.57104
H          6.40344        0.66001       -4.26125
H          5.66726       -0.13389       -2.87870
H          4.65038        0.54469       -4.15522
H          6.84074        1.38691       -1.22805
H          7.68944        2.10497       -2.59804
H          6.82387        3.13312       -1.45658
H         -0.40285       -0.34053       -5.65343
H          1.23675        1.41180       -5.44014
H         -1.50261        0.34503       -4.45368
H         -1.84385       -1.22760       -5.16897
H          1.93696        0.29744       -4.26142
H          2.58096        1.92617       -4.42361
