111
-148.55705355
P         -1.64423       -2.80561       -0.23022
P         -0.53753        0.14801       -0.52998
C         -1.51012       -2.05044       -1.87584
C         -1.09605       -0.74041       -1.99785
C         -0.46522       -4.21793       -0.05061
C          0.60443       -3.89397        0.97053
C         -1.79360       -2.78971       -3.00630
H         -2.08130       -3.82362       -2.90691
C         -1.68421       -2.20618       -4.25676
H         -1.90892       -2.78217       -5.13958
C         -1.28163       -0.88964       -4.37516
H         -1.19092       -0.43744       -5.34905
C         -0.97686       -0.15726       -3.24195
H         -0.62909        0.86072       -3.31837
Pd        -1.46114       -1.02953        1.23057
Cl        -2.15141       -2.41927        2.85047
Cl        -1.20264        0.78262        2.53316
C         -1.37818       -5.39676        0.34263
C         -3.25038       -3.68045        0.05744
H          0.15621       -3.67489        1.94175
H          1.29611       -4.72910        1.10380
H          1.18481       -3.01754        0.67551
H         -1.33491       -5.52518        1.43289
H         -0.99238       -6.33716       -0.07908
H         -3.52215       -3.46623        1.09957
C         -2.85474       -5.16098       -0.08706
C         -4.34641       -3.21370       -0.87689
H         -0.02791       -4.37883       -1.04474
H         -2.98765       -5.46411       -1.13468
H         -3.53977       -5.79802        0.49318
H         -4.08976       -3.41551       -1.91718
H         -5.29021       -3.72278       -0.66872
H         -4.51378       -2.13819       -0.78382
C         -0.74276        4.68790       -0.74700
C          0.31553        3.99371       -1.38755
C          0.34536        2.61208       -1.29166
C         -0.66195        1.92542       -0.66552
C         -1.74394        2.58365       -0.14365
C         -1.83210        3.96512       -0.19634
O         -0.69087        6.10156       -0.61983
C          1.44476        4.71206       -2.14266
H          1.17278        2.04932       -1.68945
H         -2.50976        1.99980        0.33717
C         -3.07213        4.65567        0.39228
C          3.67075       -1.27497        0.46405
C          2.98960       -0.40407        1.35261
C          1.71379        0.01073        1.01270
C          1.14992       -0.34356       -0.18337
C          1.84005       -1.10506       -1.08891
C          3.11949       -1.55621       -0.81260
O          4.88161       -1.89760        0.86864
C          3.58099        0.04833        2.69583
H          1.11348        0.57900        1.70198
H          1.35396       -1.36408       -2.01278
C          3.86314       -2.37909       -1.87562
C          0.94443        6.02086       -2.78046
C          2.59981        5.00197       -1.17201
C          1.97748        3.82768       -3.29334
C         -3.38392        5.96883       -0.34818
C         -4.31874        3.75306        0.24999
C         -2.83529        4.93055        1.88523
C         -0.02767        6.55212        0.55499
H          0.09689        5.82787       -3.43727
H          0.62460        6.73425       -2.02526
H          1.72922        6.49483       -3.36949
H          2.98037        4.07702       -0.73906
H          3.42361        5.49980       -1.68284
H          2.27652        5.64098       -0.35376
H          2.49797        2.94743       -2.91907
H          1.16255        3.49703       -3.93682
H          2.68691        4.38016       -3.90907
H         -4.29981        6.42326        0.02882
H         -2.58342        6.69394       -0.22571
H         -3.50944        5.78715       -1.41503
H         -5.21972        4.28822        0.54906
H         -4.44815        3.43093       -0.78291
H         -4.24994        2.86783        0.88036
H         -3.70538        5.40484        2.33834
H         -2.63913        4.00176        2.42055
H         -1.97965        5.58456        2.03487
H          0.31671        5.70288        1.14656
H          0.82474        7.17284        0.27949
H         -0.71035        7.15728        1.15128
C          4.70144       -3.14465        1.52899
C          3.17704       -0.95358        3.78837
C          5.11372        0.16602        2.61868
C          3.04143        1.44449        3.08364
C          5.38394       -2.15880       -1.78523
C          3.52941       -3.86731       -1.69035
C          3.43021       -1.95152       -3.29684
H          3.56847       -0.65166        4.75940
H          2.09203       -1.01989        3.86725
H          3.55346       -1.94986        3.56912
H          5.52497        0.54670        3.55326
H          5.57721       -0.79773        2.42424
H          5.40622        0.84441        1.81792
H          3.55416        1.82593        3.96630
H          3.19323        2.15740        2.27356
H          1.97884        1.41552        3.31987
H          5.90522       -2.69281       -2.57932
H          5.62394       -1.09980       -1.87416
H          5.78086       -2.51168       -0.83678
H          4.04146       -4.47781       -2.43362
H          3.82523       -4.21882       -0.70487
H          2.45817       -4.03735       -1.79472
H          3.53154       -0.87411       -3.42514
H          2.39700       -2.22636       -3.50425
H          4.04739       -2.43803       -4.05182
H          5.21119       -3.93087        0.97244
H          5.13759       -3.09707        2.52665
H          3.64077       -3.38471        1.60799
