72
-108.39784368
Cl         1.77676       -0.77303        2.70095
Cl        -1.08860        0.41545        2.74290
P         -1.12143        1.15090       -0.25931
P          2.26500       -0.11237       -0.37310
C          3.27054        1.48417       -0.16417
C          3.63655        1.65818        1.31125
C          4.53176        1.42085       -1.01827
C          3.33492       -1.66376       -0.10632
C          4.14128       -1.97991       -1.37263
C          1.44538       -0.41881       -2.04704
C          1.52198        0.73418       -3.02623
C         -1.13449       -0.18247       -1.49523
C          0.02102       -0.94312       -1.97260
C         -0.49590       -2.00031       -2.84437
C         -1.93904       -1.87855       -2.90703
C         -2.33077       -0.74540       -2.09201
C          2.41731        2.67656       -0.57673
H          2.74906        1.65388        1.94400
H          4.30435        0.87820        1.66663
H          5.06813        2.37041       -0.98055
H          4.29938        1.21478       -2.06198
C          4.29791       -1.51890        1.06811
H          4.64447       -1.09753       -1.76370
H          3.51792       -2.39414       -2.16416
H          2.04351       -1.23662       -2.45958
H          1.16728        0.43197       -4.01379
H          2.53633        1.11273       -3.14606
H          0.87699        1.54887       -2.70522
H          0.11328       -2.69315       -3.42785
H         -2.61078       -2.50362       -3.49919
Pd         0.53382        0.30377        1.17309
H         -3.34737       -0.39353       -1.90555
C          2.35571       -2.79442        0.16995
H          4.90628       -2.72854       -1.15992
H          3.78211       -1.20435        1.97279
H          4.77801       -2.47392        1.28633
H          5.09320       -0.80866        0.84955
H          2.87214       -3.75490        0.22453
H          1.84857       -2.63886        1.12124
H          1.60479       -2.85949       -0.61871
H          4.14627        2.61003        1.46928
H          5.21608        0.65144       -0.66480
H          2.93778        3.61371       -0.37212
H          2.18427        2.66923       -1.63819
H          1.48526        2.69140       -0.01464
C         -2.79112        1.24528        0.43622
C         -3.20286        2.17021        1.36329
C         -4.54039        1.89641        1.64933
C         -4.89202        0.81443        0.88079
O         -3.82757        0.40494        0.13094
H         -2.59554        2.94281        1.80519
H         -5.17222        2.42728        2.34257
H         -5.86581        0.34084        0.86234
C         -0.73071        2.76124       -0.96757
C         -0.68634        3.92191       -0.23501
C         -0.35440        4.95014       -1.11827
C         -0.20998        4.37249       -2.35573
O         -0.43405        3.02750       -2.27637
H         -0.85830        4.01236        0.82530
H         -0.23465        5.99350       -0.87615
H          0.04646        4.89258       -3.27034
Fe        -1.31168       -2.10903       -0.94727
C         -2.99827       -2.80838       -0.05137
C         -2.22173       -2.00166        0.87005
C         -0.90896       -2.59782        0.99551
C         -0.86165       -3.75925        0.12545
C         -2.16102       -3.90406       -0.50738
H         -4.03821       -2.62969       -0.33477
H         -2.56743       -1.10767        1.39170
H         -0.12068       -2.24148        1.66111
H         -0.02655       -4.45713        0.02911
H         -2.45861       -4.69958       -1.19461
