87
-129.18798304
P         -1.60792       -0.20013       -0.14347
P          1.69613        0.38392       -0.08739
C         -1.30872        1.06622       -1.39003
C          1.40897       -0.67929       -1.51231
C         -0.33247        0.90202       -2.36808
C         -0.08795        1.95862       -3.26716
C         -0.83850        3.11796       -3.17097
C         -1.81095        3.25651       -2.20449
C         -2.03911        2.22740       -1.31272
C          2.13763       -1.84030       -1.60613
C          1.92014       -2.71804       -2.64951
C          0.96093       -2.42802       -3.59557
C          0.21193       -1.26603       -3.51999
C          0.44443       -0.36321       -2.46380
Cl         1.40710        0.69216        3.13114
Cl        -1.36212       -0.98343        2.97211
H         -2.38402        4.16682       -2.13836
H         -2.79367        2.33210       -0.55129
H          2.88167       -2.06389       -0.86001
H          2.49138       -3.62932       -2.71797
H         -0.64831        3.92163       -3.86199
H          0.77980       -3.11378       -4.40581
C         -1.79325       -4.38074       -1.90981
C         -0.92703       -4.12645       -0.85524
C         -0.90399       -2.84867       -0.31038
C         -1.70048       -1.85413       -0.82890
C         -2.55191       -2.11162       -1.87748
C         -2.60214       -3.38319       -2.41811
H         -1.82813       -5.37053       -2.33208
C         -0.05956       -5.19844       -0.29626
H         -0.25248       -2.63325        0.51940
H         -3.16289       -1.31562       -2.27355
H         -3.26731       -3.59296       -3.23964
C         -5.33972        0.77242        2.28173
C         -4.22973        1.58843        2.37291
C         -3.09597        1.29469        1.63933
C         -3.08330        0.19380        0.81417
C         -4.18620       -0.62366        0.72672
C         -5.33088       -0.35051        1.46616
H         -6.22495        0.99996        2.85089
H         -4.24418        2.45073        3.01916
H         -2.21668        1.91485        1.71558
H         -4.15820       -1.48791        0.08560
C         -6.53079       -1.22426        1.35722
C          5.33949       -1.05131        2.24030
C          5.38166        0.16144        1.58121
C          4.27996        0.59879        0.87049
C          3.14637       -0.17818        0.82333
C          3.10112       -1.38534        1.48254
C          4.20151       -1.84461        2.19586
H          6.19277       -1.38946        2.80322
H          6.27014        0.76978        1.62546
H          4.29572        1.54802        0.36085
H          2.19933       -1.97476        1.45651
C          4.13417       -3.13339        2.93669
C          1.97683        4.76911       -1.23437
C          2.78953        3.84217       -1.85725
C          2.71108        2.50780       -1.50365
C          1.82840        2.11698       -0.52449
C          1.02642        3.03893        0.10734
C          1.07803        4.38052       -0.25043
H          2.03365        5.80810       -1.51093
H          3.47950        4.15650       -2.62309
H          3.32367        1.76699       -1.99330
H          0.34697        2.71651        0.87807
C          0.20577        5.37600        0.42945
Pd         0.03655       -0.02043        1.50157
C          0.96090        1.85750       -4.31980
C         -0.82263       -0.99952       -4.55775
H          1.54814        2.77534       -4.37230
H          1.65160        1.03790       -4.11886
H          0.51324        1.68967       -5.30007
H         -1.41061       -1.89604       -4.75922
H         -1.51457       -0.21825       -4.24146
H         -0.36161       -0.68373       -5.49436
H         -0.54439       -5.68721        0.54988
H          0.16017       -5.95972       -1.04613
H          0.89163       -4.79077        0.04977
H         -7.20272       -0.86456        0.57673
H         -6.24933       -2.24969        1.11325
H         -7.08606       -1.24849        2.29597
H          3.50735       -3.85547        2.41123
H          5.12477       -3.57556        3.05186
H          3.71299       -2.98418        3.93184
H          0.68630        5.76129        1.32974
H         -0.01308        6.22076       -0.22525
H         -0.74575        4.92827        0.72059
