105
-153.07272860
Cl        -0.84244        2.15500       -2.84640
Pd         0.08785        1.49283       -0.90755
P          1.36149        0.73068        0.88266
N          0.65629       -0.51799        1.89600
C          0.04251       -1.74042        1.66318
C         -0.10170       -2.32606        0.38136
C         -0.84045       -3.51928        0.24271
C         -0.98330       -4.12392       -1.13479
C         -1.52775       -5.56103       -1.15040
C         -2.68638       -5.72240       -0.16209
C         -2.22940       -5.39138        1.26655
C         -1.41141       -4.12847        1.36193
C         -1.21432       -3.56374        2.61483
C         -0.50366       -2.40126        2.76318
H         -0.38820       -1.96270        3.73916
H         -1.64623       -4.04363        3.47678
H         -3.09757       -5.30204        1.93217
H         -3.50358       -5.04902       -0.44931
H         -1.83897       -5.84956       -2.16432
H         -1.63833       -3.47516       -1.72806
C          0.66400       -1.84422       -0.79374
C         -0.01164       -1.23711       -1.88759
C          0.70001       -1.01898       -3.07083
C          2.01372       -1.39359       -3.18485
C          2.67583       -2.02565       -2.13946
C          4.08559       -2.50752       -2.35923
C          4.43525       -3.71805       -1.48270
C          4.11393       -3.42158       -0.01493
C          2.63249       -3.05198        0.18275
C          2.00290       -2.25416       -0.93799
H          2.04624       -3.96915        0.31579
H          4.74589       -2.59416        0.32588
H          5.49035       -4.00147       -1.60526
H          4.77856       -1.68514       -2.15091
H          2.54365       -1.21439       -4.10494
H          0.20290       -0.53307       -3.89191
N         -1.35065       -0.83213       -1.81390
P         -1.84956        0.18464       -0.45773
C         -2.80250       -0.73753        0.74686
C         -3.56928       -1.78537        0.29762
C         -4.36462       -2.48569        1.18684
C         -4.39352       -2.13705        2.53029
C         -3.63526       -1.05472        2.95703
C         -2.84413       -0.35300        2.06571
H         -2.25546        0.48635        2.39555
H         -3.66597       -0.76672        3.99395
C         -5.24859       -2.88748        3.49059
H         -4.96552       -3.30963        0.84218
H         -3.53735       -2.05143       -0.74707
C         -2.96695        1.48134       -1.00457
C         -2.93278        2.71235       -0.39288
C         -3.79764        3.70828       -0.80801
C         -4.70167        3.47591       -1.83579
C         -4.73488        2.21880       -2.42437
C         -3.86810        1.22393       -2.00918
H         -3.89571        0.24586       -2.46203
H         -5.44344        2.02391       -3.21116
C         -5.64681        4.54170       -2.26958
H         -3.77336        4.67549       -0.33574
H         -2.22710        2.89303        0.40234
H         -1.69941       -0.35952       -2.63806
H          0.85380       -0.26896        2.85769
C          1.31016        2.23119        1.86949
C          0.09115        2.63825        2.35646
C         -0.00163        3.80449        3.09420
C          1.12971        4.56695        3.35201
C          2.35007        4.14465        2.84143
C          2.43946        2.97886        2.10340
H          3.38407        2.65604        1.69756
H          3.22973        4.73920        3.01986
C          1.02893        5.83834        4.12066
H         -0.95597        4.13149        3.47030
H         -0.78360        2.04432        2.14884
C          3.09213        0.37224        0.58297
C          3.70053        0.71554       -0.60059
C          5.05238        0.48513       -0.77279
C          5.80614       -0.08789        0.24214
C          5.18139       -0.40043        1.44198
C          3.82659       -0.17365        1.60913
H          3.33767       -0.41323        2.54020
H          5.76098       -0.82576        2.24339
C          7.26451       -0.32592        0.06050
H          5.53295        0.75857       -1.69665
H          3.12167        1.18719       -1.37672
Cl         1.71663        3.03163       -1.13975
H         -1.63661       -6.22227        1.66728
H         -0.72349       -6.25724       -0.88117
H         -3.10716       -6.73656       -0.21486
H         -0.00886       -4.09003       -1.63803
H          4.38833       -4.27517        0.62066
H          2.50659       -2.49321        1.11798
H          4.22596       -2.74932       -3.42049
H          3.85345       -4.58739       -1.81413
H         -6.22541       -2.41285        3.59275
H         -5.40610       -3.91469        3.15863
H         -4.78750       -2.92695        4.47853
H         -5.90325        4.43458       -3.32445
H         -6.57113        4.49869       -1.69189
H         -5.21089        5.53257       -2.13485
H          1.94427        6.03288        4.68136
H          0.85827        6.68244        3.45115
H          0.20494        5.80302        4.83472
H          7.50005       -0.54533       -0.98190
H          7.84034        0.55116        0.35879
H          7.60317       -1.17179        0.66049
