72
-108.40321577
Cl         1.70988       -0.89191        2.65546
Cl        -0.89748        0.87625        2.78616
P         -1.14454        1.13309       -0.26416
P          2.27337       -0.13422       -0.37728
C          3.26893        1.46197       -0.12530
C          3.62085        1.60279        1.35709
C          4.53685        1.42171       -0.97044
C          3.34056       -1.69120       -0.14246
C          4.16554       -1.96679       -1.40563
C          1.44973       -0.40442       -2.05393
C          1.51336        0.77446       -3.00219
C         -1.13735       -0.19605       -1.50618
C          0.03022       -0.94122       -1.97913
C         -0.47687       -2.02758       -2.81946
C         -1.92132       -1.92139       -2.89267
C         -2.32731       -0.77858       -2.09807
C          2.41505        2.66043       -0.51952
H          4.12730        2.55159        1.54171
H          2.72756        1.58227        1.98142
H          5.06721        2.37358       -0.91154
H          4.31234        1.23323       -2.01944
C          4.28408       -1.57285        1.05026
H          4.92051       -2.72962       -1.20814
H          4.68284       -1.07521       -1.75486
H          2.05141       -1.20714       -2.49062
H          0.87014        1.57885       -2.65271
H          1.14976        0.49801       -3.99404
H          2.52614        1.15821       -3.12089
H          0.14067       -2.72469       -3.38914
H         -2.58463       -2.56620       -3.47339
Pd         0.52118        0.26539        1.14493
H         -3.34852       -0.43834       -1.91455
C          2.36406       -2.83548        0.08742
H          3.55220       -2.34453       -2.22272
H          3.75205       -1.28102        1.95344
H          4.76364       -2.53157        1.25303
H          5.08034       -0.85504        0.86147
H          1.85062       -2.71559        1.04013
H          1.61767       -2.87901       -0.70705
H          2.88509       -3.79462        0.11319
H          4.28659        0.81569        1.70057
H          5.22302        0.65007       -0.62523
H          2.19964        2.68045       -1.58463
H          1.47404        2.65548        0.02743
H          2.92684        3.59450       -0.28167
C         -2.82156        1.21509        0.41715
C         -3.26135        2.16217        1.30823
C         -4.59579        1.87133        1.59137
C         -4.91832        0.75727        0.85678
O         -3.83867        0.34440        0.13094
H         -2.67480        2.96338        1.72651
H         -5.24495        2.41297        2.25981
H         -5.88242        0.26406        0.84522
C         -0.74997        2.75033       -0.95253
C         -0.67160        3.89221       -0.19403
C         -0.34832        4.93700       -1.06096
C         -0.24321        4.38728       -2.31512
O         -0.48345        3.04375       -2.26206
H         -0.81320        3.95685        0.87276
H         -0.20808        5.97256       -0.79730
H         -0.00318        4.92576       -3.22353
Fe        -1.30633       -2.11898       -0.94100
C         -3.00455       -2.78216        0.00862
C         -2.18201       -1.98481        0.89732
C         -0.88365       -2.61600        0.99835
C         -0.88619       -3.79211        0.14856
C         -2.19709       -3.89114       -0.46836
H         -4.04430       -2.57683       -0.25582
H         -2.49272       -1.08099        1.42493
H         -0.07395       -2.27711        1.64705
H         -0.06884       -4.50778        0.03406
H         -2.53030       -4.68300       -1.14330
