64
-97.21868756
Cl        -1.34144       -0.59964       -2.80762
Cl         1.85695       -0.84735       -2.95807
P          1.97278       -0.62155        0.33137
C          2.14737       -2.36138        0.95284
C          3.77730       -0.21865        0.10169
P         -1.25393       -0.28239        0.36583
C          1.20046        0.49093        1.55858
C         -0.24393        0.61927        1.60323
C         -0.57044        1.60046        2.62727
C          0.68345        2.09834        3.16809
C          1.78245        1.36431        2.56448
H         -1.57201        1.90088        2.94000
H          0.77933        2.83770        3.96666
Pd         0.33231       -0.75682       -1.32428
H          2.84633        1.49103        2.77189
C         -5.12909        1.81234       -0.83733
C         -4.84585        0.53787       -1.28560
C         -3.66527       -0.07792       -0.91000
C         -2.77027        0.57996       -0.09716
C         -3.05938        1.84612        0.35931
C         -4.23675        2.46746       -0.01272
H         -6.04716        2.29523       -1.13018
H         -5.54059        0.02334       -1.92895
H         -3.43219       -1.07262       -1.25544
H         -2.36062        2.35068        1.00196
H         -4.45644        3.46164        0.34061
C         -2.50579       -4.36246        1.92011
C         -2.15976       -4.21095        0.59136
C         -1.78244       -2.96841        0.11606
C         -1.74826       -1.89266        0.97297
C         -2.10307       -2.03357        2.29469
C         -2.48129       -3.27571        2.77269
H         -2.79997       -5.33049        2.29173
H         -2.18620       -5.05737       -0.07510
H         -1.52751       -2.82715       -0.92205
H         -2.07535       -1.17362        2.94530
H         -2.75543       -3.39387        3.80815
C          4.11047        0.57390       -1.14445
H          4.06441        0.34532        0.99885
C          4.44349       -1.60489        0.12302
H          5.49355       -1.52040        0.44190
C          3.66658       -2.59465        1.02564
H          4.47788       -1.99414       -0.90394
C          1.45427       -2.52969        2.28733
H          1.69215       -3.00427        0.18766
H          3.99401       -2.47072        2.06671
H          3.90775       -3.63609        0.76543
H          0.38967       -2.30805        2.21355
H          1.56154       -3.54769        2.66881
H          1.87617       -1.84891        3.02927
H          5.18999        0.69312       -1.25713
H          3.74527        0.06631       -2.03665
H          3.67323        1.57106       -1.12441
Fe         0.64110        2.36509        1.14129
C          1.95765        3.38816       -0.04000
C          1.03552        4.34082        0.55363
C         -0.30556        3.92593        0.18193
C         -0.20606        2.77957       -0.70383
C          1.19571        2.44832       -0.84386
H          3.04594        3.42664        0.04626
H          1.29875        5.18534        1.19360
H         -1.22816        4.44399        0.45320
H         -1.02904        2.27327       -1.21159
H          1.58845        1.65822       -1.48657
