171
-217.84633641
P         -1.58702        0.35631       -0.40902
P          1.64781       -0.38489       -0.22012
C         -0.79686        1.33976       -1.68740
C          1.01945       -1.33691       -1.61059
C          0.04699        0.73878       -2.61415
C          0.70165        1.54980       -3.56092
C          0.46869        2.91509       -3.55924
C         -0.38599        3.48929       -2.64217
C         -1.01402        2.69575       -1.70238
C          1.24900       -2.69143       -1.61854
C          0.71596       -3.48246       -2.61686
C         -0.06430       -2.90814       -3.59769
C         -0.30861       -1.54498       -3.60925
C          0.25869       -0.73448       -2.60690
Cl         1.38346        0.18121        2.99485
Cl        -1.76272       -0.43143        2.76723
C         -1.16931       -0.96904       -4.67904
C          1.61736        0.96113       -4.57659
H         -0.56369        4.55212       -2.65862
H         -1.68080        3.13613       -0.97910
H          1.84738       -3.13468       -0.83939
H          0.90308       -4.54382       -2.62315
H          0.96616        3.53064       -4.28966
H         -0.49802       -3.52223       -4.36890
C         -3.74929       -3.30241       -1.94314
C         -2.77698       -3.46271       -0.96399
C         -2.11679       -2.32667       -0.51413
C         -2.40722       -1.09779       -1.05147
C         -3.35516       -0.95760       -2.03487
C         -4.05435       -2.06585       -2.49855
H         -4.30151       -4.16506       -2.26712
H         -1.37734       -2.38848        0.26512
H         -3.55289        0.02711       -2.42342
C         -4.53989        2.80072        2.02164
C         -3.18727        3.11293        2.10264
C         -2.30352        2.37633        1.32432
C         -2.75565        1.35160        0.53112
C         -4.09126        1.04119        0.48499
C         -5.01482        1.76469        1.22564
H         -5.23951        3.37628        2.59616
H         -1.24880        2.58893        1.34538
H         -4.41817        0.21869       -0.12649
C          4.46078       -2.82225        2.37165
C          3.11937       -3.18361        2.32106
C          2.27943       -2.44602        1.49760
C          2.76258       -1.37950        0.78148
C          4.08711       -1.02736        0.85500
C          4.96837       -1.74958        1.64892
H          5.13282       -3.38064        2.99564
H          1.23372       -2.69368        1.42679
H          4.42566       -0.17394        0.29532
C          3.78126        3.48188       -1.19107
C          2.78183        3.48764       -0.22565
C          2.11948        2.29426        0.02665
C          2.44855        1.15391       -0.66266
C          3.44260        1.16149       -1.61007
C          4.13426        2.33435       -1.89120
H          4.31729        4.38925       -1.39619
H          1.35644        2.24679        0.78468
H          3.68322        0.23990       -2.11213
Pd        -0.08291       -0.09253        1.31334
C         -3.72697       -5.32476        0.41156
C         -2.49429       -4.85261       -0.37879
C         -1.27892       -4.82779        0.56820
C         -2.19617       -5.84327       -1.52019
H         -4.60400       -5.39216       -0.23142
H         -3.55639       -6.30722        0.85138
H         -3.95633       -4.62810        1.21775
H         -1.46366       -4.18814        1.43086
H         -1.05882       -5.82738        0.94261
H         -0.39298       -4.46270        0.04973
H         -1.94715       -6.82831       -1.12587
H         -3.05303       -5.95916       -2.18241
H         -1.35469       -5.49754       -2.11939
C         -6.52678       -2.23150       -2.82210
C         -5.18838       -1.94474       -3.52634
C         -4.97645       -2.96029       -4.66580
C         -5.24766       -0.53259       -4.14158
H         -6.54243       -3.23771       -2.40433
H         -6.69086       -1.52904       -2.00518
H         -7.36149       -2.14308       -3.51722
H         -5.00304       -3.98516       -4.29841
H         -5.75441       -2.86213       -5.42278
H         -4.01432       -2.80378       -5.15180
H         -5.46818        0.21897       -3.38407
H         -4.30361       -0.27345       -4.62007
H         -6.03022       -0.47290       -4.89786
C         -2.48177        5.50902        2.09793
C         -2.66774        4.26257        2.97844
C         -1.31904        3.87591        3.62116
C         -3.65559        4.59029        4.11608
H         -3.43197        5.82071        1.66463
H         -2.08282        6.34210        2.67637
H         -1.79504        5.30564        1.27747
H         -0.98811        4.64165        4.32246
H         -1.40645        2.93535        4.16471
H         -0.53551        3.76210        2.87447
H         -4.59114        4.99242        3.72905
H         -3.87930        3.70000        4.70361
H         -3.23659        5.33852        4.78882
C         -6.67277       -0.07905        1.59116
C         -6.49989        1.38451        1.14221
C         -6.98070        1.53879       -0.31269
C         -7.37064        2.27930        2.04457
H         -7.72169       -0.37382        1.56651
H         -6.12071       -0.76053        0.94485
H         -6.30674       -0.21447        2.60865
H         -8.03608        1.28290       -0.40467
H         -6.85032        2.56534       -0.65456
H         -6.42073        0.88977       -0.98470
H         -7.29522        3.32581        1.74980
H         -8.41999        1.99267        1.97591
H         -7.07239        2.19091        3.08908
C          2.16736       -5.48977        2.15303
C          2.54524       -4.35873        3.12457
C          1.29289       -3.89257        3.89438
C          3.56330       -4.90138        4.14607
H          1.44040       -5.14666        1.41881
H          3.04502       -5.84200        1.61136
H          1.73501       -6.33641        2.68597
H          1.53131       -3.04742        4.53969
H          0.49846       -3.58088        3.21803
H          0.89766       -4.69392        4.51824
H          3.12431       -5.70203        4.74125
H          4.44288       -5.30918        3.64857
H          3.88492       -4.11663        4.83060
C          6.81033       -0.18506        0.85090
C          6.45413       -1.37908        1.75941
C          7.31441       -2.58412        1.33663
C          6.77229       -0.99663        3.21614
H          7.86946        0.05955        0.93018
H          6.60153       -0.41281       -0.19427
H          6.24580        0.70424        1.13086
H          8.37579       -2.34095        1.38348
H          7.14126       -3.44262        1.98437
H          7.08145       -2.88307        0.31477
H          7.81771       -0.70843        3.32494
H          6.15487       -0.15751        3.53622
H          6.58273       -1.82835        3.89368
C          2.56873        4.43961        2.08440
C          2.40890        4.73881        0.58129
C          0.94854        5.11495        0.27996
C          3.30714        5.93872        0.22540
H          3.59515        4.15290        2.31200
H          2.32058        5.31433        2.68522
H          1.91883        3.62476        2.40006
H          0.82409        5.35466       -0.77538
H          0.27608        4.29223        0.51649
H          0.64014        5.98294        0.86232
H          3.03465        6.81349        0.81580
H          4.35503        5.71718        0.42708
H          3.20561        6.20705       -0.82600
C          6.59210        2.74502       -2.13811
C          5.29855        2.38223       -2.89107
C          5.01223        3.44680       -3.96672
C          5.50753        1.02338       -3.58757
H          7.44446        2.77195       -2.81674
H          6.51239        3.72218       -1.66309
H          6.80323        2.01201       -1.36001
H          5.81201        3.47768       -4.70646
H          4.08025        3.23161       -4.48742
H          4.92714        4.44075       -3.52937
H          4.61518        0.71835       -4.13256
H          6.32830        1.07775       -4.30262
H          5.75292        0.24551       -2.86475
H         -0.64102       -0.94229       -5.63307
H          1.09225        0.77918       -5.51510
H         -1.48403        0.04687       -4.43692
H         -2.07031       -1.56811       -4.81268
H          2.03453        0.01341       -4.23330
H          2.45034        1.63190       -4.78724
