58
-89.86824117
P          1.53780       -0.02674        0.71988
C          2.91127        1.13238        0.72831
C          2.68673        2.48631        0.82936
C          3.75771        3.36158        0.84137
C          5.04682        2.87396        0.75591
C          5.26796        1.51450        0.65744
C          4.19464        0.64174        0.64431
H          4.35043       -0.42246        0.56504
H          1.67570        2.85722        0.87867
C          2.01668       -1.54779       -0.10842
C          2.22727       -2.71736        0.58610
C          2.58716       -3.86432       -0.09810
C          2.73806       -3.83057       -1.47064
C          2.53690       -2.65211       -2.16161
C          2.17805       -1.50749       -1.47446
H          2.02254       -0.57318       -1.99108
H          2.10884       -2.73329        1.65700
C          1.04134       -0.29232        2.47272
C          0.09627        0.80904        2.93296
C         -1.36817        0.53925        2.61799
P         -1.70489        0.03068        0.87679
C         -3.41189        0.42870        0.48047
C         -3.86312        1.71892        0.63937
C         -5.17441        2.03235        0.32852
C         -6.02468        1.05009       -0.13954
C         -5.56739       -0.24299       -0.29939
C         -4.25567       -0.55253        0.01133
H         -3.88463       -1.55680       -0.11250
H         -3.18366        2.48036        0.98843
C         -1.40928       -1.72838        0.59952
C         -1.25892       -2.16235       -0.69838
C         -1.00723       -3.49666       -0.95938
C         -0.91457       -4.39417        0.08455
C         -1.08237       -3.96059        1.38416
C         -1.33531       -2.62557        1.64059
H         -1.48428       -2.28897        2.65275
H         -1.34206       -1.45374       -1.50730
Pd        -0.13201        0.85857       -0.63197
Cl         1.42517        1.77808       -1.96167
Cl        -1.83783        1.82268       -1.72400
H         -1.76422       -0.25242        3.25570
H         -1.97814        1.42313        2.81851
H          0.20870        0.97653        4.01581
H          0.40526        1.75444        2.46579
H          0.58438       -1.27534        2.58144
H          1.96886       -0.30475        3.05083
H          3.58468        4.42287        0.91207
H          6.27356        1.13333        0.58870
H          2.74575       -4.78434        0.44012
H          2.65849       -2.62285       -3.23186
H         -5.52880        3.04319        0.44627
H         -6.22929       -1.00928       -0.66811
H         -0.87793       -3.83221       -1.97520
H         -1.01632       -4.66220        2.19950
H          5.88156        3.55578        0.76318
H          3.01550       -4.72551       -2.00333
H         -7.04566        1.29397       -0.38416
H         -0.71225       -5.43380       -0.11522
