111
-148.55610654
P         -1.65870       -2.77330       -0.00028
P         -0.50080        0.11683       -0.54587
C         -1.64107       -2.11367       -1.69090
C         -1.19406       -0.82860       -1.91670
C         -0.50949       -4.21092        0.16786
C          0.65131       -3.86109        1.07452
C         -2.04541       -2.89720       -2.75254
H         -2.36024       -3.91245       -2.57430
C         -2.02257       -2.38135       -4.03691
H         -2.34167       -2.99143       -4.86614
C         -1.58602       -1.08896       -4.25825
H         -1.56361       -0.68987       -5.25893
C         -1.16105       -0.31258       -3.19495
H         -0.78809        0.68730       -3.35231
Pd        -1.34986       -0.92583        1.33159
Cl        -1.82192       -2.08393        3.19106
Cl        -0.98007        0.98880        2.45976
C         -1.41858       -5.33271        0.70976
C         -3.25628       -3.57087        0.48489
H          1.32752       -4.70945        1.20379
H          1.22962       -3.02485        0.67682
H          0.29312       -3.56718        2.06324
H         -1.28154       -5.40028        1.79774
H         -1.10042       -6.30863        0.31303
H         -3.42267       -3.28411        1.53204
C         -2.92015       -5.07049        0.39799
C         -4.41742       -3.12113       -0.37598
H         -0.16282       -4.44589       -0.84708
H         -3.15582       -5.42970       -0.61324
H         -3.56914       -5.64750        1.07451
H         -5.35366       -3.58280       -0.05409
H         -4.54283       -2.03663       -0.33562
H         -4.26155       -3.39324       -1.42031
C         -0.85741        4.64311       -0.85786
C          0.40601        4.02125       -1.02607
C          0.47635        2.64250       -0.91868
C         -0.65148        1.88873       -0.72444
C         -1.88779        2.47529       -0.66305
C         -2.03001        3.85006       -0.76427
O         -0.94353        6.05671       -0.74887
C          1.69611        4.81668       -1.28065
H          1.42400        2.13499       -0.96853
H         -2.74454        1.83976       -0.51734
C         -3.44029        4.45978       -0.73031
C          3.73178       -1.35286        0.25415
C          3.12116       -0.43266        1.14423
C          1.83526       -0.00607        0.86284
C          1.19548       -0.39471       -0.28348
C          1.81603       -1.20611       -1.19589
C          3.10084       -1.67310       -0.97566
O          4.95152       -1.98585        0.61336
C          3.79900        0.06272        2.43015
H          1.28737        0.60236        1.56160
H          1.27051       -1.49167       -2.07792
C          3.76424       -2.55601       -2.04356
C          1.41156        6.08642       -2.10322
C          2.33822        5.18766        0.06480
C          2.70753        3.97310       -2.09030
C         -4.47374        3.47924       -1.33003
C         -3.83103        4.75160        0.72655
C         -3.50965        5.74920       -1.56873
C         -0.83499        6.54356        0.58299
H          2.33423        6.61709       -2.33678
H          0.91898        5.83319       -3.04142
H          0.76532        6.77338       -1.56266
H          1.67269        5.80452        0.66345
H          2.56689        4.29200        0.64172
H          3.26589        5.73968       -0.08405
H          3.08987        3.13456       -1.50995
H          2.24793        3.58239       -2.99780
H          3.56669        4.57604       -2.38344
H         -4.60852        2.60061       -0.70106
H         -5.44907        3.95600       -1.42533
H         -4.16462        3.14867       -2.32132
H         -4.83479        5.17156        0.78544
H         -3.81102        3.83816        1.32053
H         -3.14381        5.45800        1.18554
H         -4.52464        6.14484       -1.59589
H         -2.86626        6.52427       -1.16018
H         -3.19252        5.55795       -2.59334
H         -1.73655        7.09695        0.84505
H         -0.69983        5.71582        1.28041
H          0.01348        7.22368        0.65583
C          4.78487       -3.19835        1.33846
C          5.32704        0.13867        2.26192
C          3.31466        1.48784        2.78373
C          3.43553       -0.88012        3.58757
C          5.29210       -2.36815       -2.04952
C          3.41033       -4.02700       -1.77626
C          3.25904       -2.17709       -3.45457
H          5.79949        0.54827        3.15439
H          5.75697       -0.84361        2.08404
H          5.58840        0.77507        1.41712
H          3.88393        1.89381        3.61953
H          3.43946        2.16013        1.93542
H          2.26616        1.49752        3.07739
H          3.88777       -0.54564        4.52075
H          2.35552       -0.91635        3.72951
H          3.77696       -1.89400        3.39286
H          5.73604       -2.69336       -1.11209
H          5.75481       -2.94457       -2.85023
H          5.54893       -1.31931       -2.19430
H          2.33134       -4.17569       -1.81066
H          3.86447       -4.67953       -2.52147
H          3.75647       -4.34448       -0.79559
H          2.20961       -2.43440       -3.59061
H          3.82018       -2.70962       -4.22213
H          3.37702       -1.10880       -3.63434
H          3.72591       -3.41111        1.48755
H          5.24633       -4.01935        0.79004
H          5.27793       -3.11687        2.30700
