58
-89.86410173
P          1.81137        0.08569        0.55690
C          1.90997        1.87908        0.53354
C          0.78175        2.61656        0.26450
C          0.83622        3.99754        0.28179
C          2.02607        4.63305        0.57536
C          3.15559        3.89021        0.85856
C          3.09460        2.50790        0.84304
H          3.96514        1.91537        1.07574
H         -0.14472        2.10941        0.06273
C          3.30626       -0.63712       -0.13423
C          3.70153       -1.90107        0.24178
C          4.83511       -2.46300       -0.31798
C          5.56139       -1.75851       -1.25747
C          5.15457       -0.49654       -1.64204
C          4.02098        0.06243       -1.07994
H          3.68046        1.03843       -1.38701
H          3.11842       -2.45072        0.96275
C          1.61390       -0.42429        2.30692
C          0.40320        0.21772        2.97075
C         -0.90527       -0.49860        2.67674
P         -1.56252       -0.29524        0.96751
C         -2.23627        1.34690        0.68350
C         -2.35026        2.26964        1.69918
C         -2.83994        3.53398        1.42530
C         -3.21343        3.86596        0.13782
C         -3.10288        2.93631       -0.87676
C         -2.61318        1.67400       -0.59898
H         -2.51354        0.93413       -1.37691
H         -2.05179        2.00595        2.70019
C         -2.84366       -1.54122        0.79229
C         -4.16673       -1.16840        0.72955
C         -5.14663       -2.13399        0.58606
C         -4.79231       -3.46639        0.50563
C         -3.46290       -3.83524        0.56838
C         -2.48493       -2.86720        0.71272
H         -1.44166       -3.13873        0.75375
H         -4.42679       -0.12382        0.78733
Pd         0.00708       -0.61316       -0.72118
Cl         1.41980       -1.26469       -2.34292
Cl        -1.77612       -1.16725       -1.99003
H         -0.79229       -1.57160        2.84356
H         -1.70288       -0.16742        3.34592
H          0.55959        0.24391        4.06066
H          0.33009        1.26992        2.66528
H          1.55369       -1.51267        2.35223
H          2.54317       -0.13258        2.80275
H         -0.05094        4.57276        0.07416
H          4.08297        4.38559        1.09487
H          5.14673       -3.45212       -0.02496
H          5.71390        0.04987       -2.38353
H         -2.92670        4.26039        2.21659
H         -3.39433        3.19273       -1.88197
H         -6.18366       -1.84581        0.53340
H         -3.18604       -4.87445        0.50036
H          2.07200        5.70980        0.58931
H          6.44263       -2.19714       -1.69649
H         -3.59307        4.85200       -0.07507
H         -5.55455       -4.21965        0.39032
