75
-122.81361445
P          1.88280       -0.53625        0.15541
C          1.61808       -1.57474       -1.28601
C          1.87845       -1.09590       -2.54957
C          1.79260       -1.94555       -3.63700
C          1.45247       -3.27061       -3.44864
C          1.19419       -3.74683       -2.17842
C          1.28151       -2.89485       -1.09192
H          1.10466       -3.25551       -0.09054
H          0.92591       -4.78014       -2.03232
H          1.38132       -3.93307       -4.29577
H          1.98980       -1.57304       -4.62868
H          2.15047       -0.06097       -2.67835
C          3.31900       -1.24563        0.99126
C          4.31129       -1.78038        0.19973
C          5.43220       -2.34569        0.78090
C          5.55436       -2.37138        2.15559
C          4.56238       -1.82844        2.94701
C          3.44703       -1.26207        2.36054
H          2.68625       -0.80612        2.96856
H          4.66050       -1.83817        4.02019
H          6.42642       -2.81167        2.61097
H          6.20668       -2.76635        0.16080
H          4.20204       -1.75749       -0.87310
C          2.26047        1.15292       -0.32451
C          3.41218        1.80296        0.05149
C          3.59182        3.14642       -0.24905
C          2.56572        3.82919       -0.90200
C          1.40139        3.19126       -1.26964
C          1.25095        1.82208       -0.99865
O          0.08377        1.12934       -1.35755
C         -1.12565        1.78937       -1.08944
C         -1.28207        3.15964       -1.35143
C         -2.47696        3.77258       -1.04666
C         -3.53035        3.06017       -0.47467
C         -3.35338        1.71091       -0.20188
C         -2.17143        1.08187       -0.51608
P         -1.78171       -0.63365       -0.11355
C         -3.09185       -1.36609        0.88417
C         -4.37162       -1.38121        0.37726
C         -5.39527       -1.95882        1.10641
C         -5.12743       -2.52680        2.33579
C         -3.83947       -2.52469        2.83292
C         -2.81834       -1.94716        2.10113
H         -1.80870       -1.94750        2.47828
H         -3.62904       -2.97152        3.79071
H         -5.92391       -2.97602        2.90630
H         -6.39850       -1.96801        0.71306
H         -4.56184       -0.95542       -0.59559
C         -1.73427       -1.57893       -1.64724
C         -1.41638       -0.96510       -2.83696
C         -1.47515       -1.67736       -4.02015
C         -1.84688       -3.00686       -4.00348
C         -2.15640       -3.62382       -2.80762
C         -2.10224       -2.90524       -1.62687
H         -2.35839       -3.37000       -0.68814
H         -2.44388       -4.66224       -2.79339
H         -1.88864       -3.56556       -4.92416
H         -1.22236       -1.19712       -4.95107
H         -1.10488        0.06566       -2.83147
Pd        -0.06765       -0.02779        1.43201
Cl        -1.76348        0.96375        2.54573
Cl         1.40680        0.91775        2.84307
H         -4.13535        1.16096        0.29007
C         -4.79644        3.74529       -0.10204
H         -5.64887        3.07064       -0.19180
H         -4.98428        4.60482       -0.74673
H         -4.75422        4.09927        0.92875
H         -2.58999        4.82408       -1.24336
S          0.07284        4.05951       -2.06205
H          2.67467        4.87859       -1.11177
C          4.82357        3.85907        0.18209
H          4.16641        1.26880        0.60300
H          4.70553        4.25810        1.19028
H          5.68450        3.18925        0.18366
H          5.05162        4.69086       -0.48561
