111
-148.55639673
P         -1.63771       -2.81683       -0.18476
P         -0.54280        0.14568       -0.52553
C         -1.49061       -2.08401       -1.84021
C         -1.08923       -0.77163       -1.98081
C         -0.44469       -4.21273        0.02867
C          0.60469       -3.86501        1.06287
C         -1.75542       -2.84522       -2.96070
H         -2.03125       -3.88084       -2.84662
C         -1.64251       -2.28173       -4.21995
H         -1.85324       -2.87504       -5.09472
C         -1.25499       -0.96265       -4.35713
H         -1.16210       -0.52543       -5.33764
C         -0.96742       -0.20842       -3.23390
H         -0.63124        0.81201       -3.32571
Pd        -1.47124       -1.00890        1.24560
Cl        -2.24058       -2.40377        2.82803
Cl        -1.18884        0.78902        2.56003
C         -1.34917       -5.39868        0.41979
C         -3.23803       -3.71008        0.08386
H          1.30335       -4.69073        1.21677
H          1.17996       -2.98548        0.76696
H          0.13841       -3.64004        2.02420
H         -1.32299       -5.51425        1.51202
H         -0.94427       -6.33871        0.01552
H         -3.53165       -3.48953        1.11852
C         -2.82092       -5.18678       -0.03766
C         -4.32515       -3.26832       -0.87298
H          0.01014       -4.37866       -0.95671
H         -2.93195       -5.50307       -1.08390
H         -3.50756       -5.82643        0.53778
H         -4.50671       -2.19388       -0.79606
H         -4.05086       -3.48010       -1.90667
H         -5.26590       -3.78609       -0.67263
C         -0.73603        4.68173       -0.83493
C          0.26922        3.96491       -1.53334
C          0.29973        2.58578       -1.40509
C         -0.66454        1.92090       -0.69338
C         -1.70159        2.59962       -0.10989
C         -1.78560        3.98006       -0.18844
O         -0.66871        6.09781       -0.74763
C          1.34032        4.65733       -2.39061
H          1.09500        2.00863       -1.84559
H         -2.43298        2.03326        0.44026
C         -2.97445        4.69369        0.47370
C          3.66452       -1.25679        0.50589
C          2.97887       -0.37430        1.37931
C          1.70372        0.03382        1.02887
C          1.14444       -0.33757       -0.16418
C          1.83903       -1.11159       -1.05567
C          3.11783       -1.55760       -0.76816
O          4.87568       -1.87072        0.92281
C          3.56496        0.09848        2.71790
H          1.10024        0.60975        1.70878
H          1.35680       -1.38475       -1.97745
C          3.86615       -2.39584       -1.81582
C          0.79654        5.95099       -3.02388
C          2.56657        4.96768       -1.51875
C          1.78157        3.74007       -3.55418
C         -4.23217        3.79557        0.45120
C         -2.62392        5.00684        1.93644
C         -3.33569        5.98856       -0.27646
C          0.08458        6.57377        0.36099
H          1.53572        6.40550       -3.68307
H         -0.09872        5.74442       -3.60938
H          0.53650        6.68575       -2.26622
H          2.30816        5.62948       -0.69560
H          2.97691        4.05286       -1.09158
H          3.35016        5.44832       -2.10390
H          2.44393        4.27245       -4.23645
H          2.32619        2.86740       -3.19689
H          0.91920        3.39666       -4.12506
H         -4.11956        2.92760        1.09904
H         -5.10553        4.34453        0.80259
H         -4.44094        3.44609       -0.55957
H         -3.45492        5.49909        2.44087
H         -2.39242        4.09135        2.48051
H         -1.75631        5.65874        2.00321
H         -4.21796        6.45918        0.15667
H         -2.52473        6.71123       -0.23516
H         -3.54315        5.77911       -1.32528
H          0.91588        7.18216        0.00522
H         -0.54784        7.19810        0.99193
H          0.46970        5.73771        0.94617
C          4.69695       -3.10738        1.60279
C          5.09764        0.21882        2.64383
C          3.02096        1.49869        3.08429
C          3.15982       -0.88859        3.82344
C          5.38606       -2.16919       -1.72576
C          3.53681       -3.88182       -1.60639
C          3.43495       -1.99376       -3.24497
H          5.50517        0.61246        3.57466
H          5.56409       -0.74616        2.46313
H          5.39095        0.88759        1.83532
H          3.53058        1.89409        3.96260
H          3.17297        2.20025        2.26442
H          1.95787        1.47040        3.31835
H          3.54688       -0.57142        4.79135
H          2.07472       -0.95672        3.89938
H          3.53974       -1.88690        3.62020
H          5.78199       -2.50552       -0.77091
H          5.91080       -2.71419       -2.51004
H          5.62285       -1.11098       -1.83116
H          4.05231       -4.50298       -2.33836
H          3.83173       -4.21594       -0.61464
H          2.46636       -4.05699       -1.71007
H          2.40300       -2.27525       -3.44976
H          4.05516       -2.49122       -3.99027
H          3.53338       -0.91840       -3.39140
H          5.12860       -3.04204        2.60140
H          3.63681       -3.34996        1.68111
H          5.21198       -3.90071        1.06141
