87
-129.18777781
P         -1.69230       -0.37766       -0.15311
P          1.61736        0.35618       -0.14025
C         -1.42019        0.95296       -1.34539
C          1.37183       -0.66024       -1.60232
C         -0.44220        0.89100       -2.33566
C         -0.22779        2.01976       -3.15026
C         -1.00761        3.14839       -2.96678
C         -1.97919        3.18814       -1.99114
C         -2.17623        2.08889       -1.17926
C          2.16098       -1.77099       -1.77527
C          1.98296       -2.58426       -2.87689
C          1.00775       -2.27711       -3.80180
C          0.19894       -1.16381       -3.64537
C          0.38575       -0.33032       -2.52476
Cl         1.28261        0.98854        2.98075
Cl        -1.42090       -0.79259        3.03876
H         -2.57576        4.07534       -1.85530
H         -2.92659        2.11960       -0.40705
H          2.92105       -2.00315       -1.04791
H          2.59995       -3.45785       -3.00935
H         -0.84059        4.00652       -3.59554
H          0.86123       -2.91150       -4.65947
C         -1.15771       -4.56547       -1.83418
C         -0.47377       -4.19923       -0.68275
C         -0.67465       -2.92346       -0.17185
C         -1.50665       -2.03527       -0.81384
C         -2.18336       -2.40633       -1.95174
C         -2.01050       -3.67928       -2.46301
H         -1.01665       -5.55422       -2.23613
C          0.44413       -5.14496        0.00845
H         -0.18049       -2.62964        0.73800
H         -2.82931       -1.69482       -2.44152
H         -2.53391       -3.97566       -3.35717
C         -5.72516        0.14355        1.89916
C         -5.54528       -0.87287        0.98202
C         -4.31941       -1.03554        0.36459
C         -3.28468       -0.18030        0.66437
C         -3.46228        0.83235        1.57893
C         -4.68422        1.00454        2.21768
H         -6.67962        0.27346        2.38022
H         -6.35878       -1.54000        0.74829
H         -4.16421       -1.82897       -0.34773
H         -2.63934        1.48597        1.81778
C         -4.87093        2.10787        3.19880
C          5.08434       -1.28885        2.31544
C          5.18809       -0.03900        1.73715
C          4.13977        0.46496        0.99065
C          2.99973       -0.28524        0.82367
C          2.89258       -1.52857        1.40318
C          3.93220       -2.04790        2.16426
H          5.90090       -1.68463        2.89499
H          6.08426        0.54478        1.86949
H          4.20330        1.44266        0.54210
H          1.99301       -2.10479        1.26740
C          3.81655       -3.40217        2.77038
C          2.19055        4.71816       -1.25953
C          2.97033        3.74674       -1.85625
C          2.80733        2.41945       -1.50485
C          1.87006        2.07966       -0.55789
C          1.09940        3.04493        0.04698
C          1.24974        4.38327       -0.29534
H          2.30570        5.75075       -1.54195
H          3.69840        4.02069       -2.60207
H          3.39351        1.64477       -1.97403
H          0.36960        2.75931        0.78567
C          0.38289        5.42291        0.32233
Pd        -0.05058        0.01676        1.45600
C          0.82085        2.02811       -4.20816
C         -0.84803       -0.87440       -4.66424
H          1.36708        2.97239       -4.20611
H          1.54782        1.22945       -4.05726
H          0.37756        1.89957       -5.19630
H         -1.56547       -0.13708       -4.30244
H         -0.40149       -0.48877       -5.58155
H         -1.40483       -1.77786       -4.91689
H         -0.00590       -5.51841        0.92932
H          0.68088       -6.00243       -0.62290
H          1.38388       -4.65466        0.26757
H         -5.09305        3.04649        2.68917
H         -5.69210        1.89323        3.88405
H         -3.97042        2.25373        3.79726
H          4.09811       -4.17363        2.05224
H          4.46326       -3.50094        3.64328
H          2.79309       -3.59955        3.09292
H         -0.51492        5.58291       -0.27638
H          0.07010        5.12824        1.32511
H          0.90814        6.37541        0.40524
