171
-217.84277579
P         -1.58304        0.34125       -0.51766
P          1.56982       -0.37753       -0.18740
C         -0.77420        1.31892       -1.78647
C          1.02314       -1.35597       -1.58913
C          0.10413        0.70626       -2.67316
C          0.78801        1.50751       -3.60845
C          0.54171        2.87003       -3.64148
C         -0.35621        3.45236       -2.77225
C         -1.00975        2.67079       -1.84034
C          1.26870       -2.70745       -1.56963
C          0.80727       -3.51233       -2.59198
C          0.07928       -2.95438       -3.62116
C         -0.18276       -1.59453       -3.65671
C          0.31998       -0.76736       -2.63410
Cl         1.27111        0.30309        2.99771
Cl        -1.81206       -0.41740        2.82339
C         -0.98115       -1.03456       -4.78055
C          1.76516        0.92111       -4.56643
H         -0.54520        4.51246       -2.81740
H         -1.71309        3.11774       -1.15720
H          1.82367       -3.13608       -0.75095
H          1.00864       -4.57106       -2.57958
H          1.06426        3.47700       -4.36155
H         -0.29772       -3.57939       -4.41310
C         -3.82589       -3.20715       -2.19436
C         -2.84762       -3.42711       -1.23224
C         -2.16520       -2.32434       -0.73401
C         -2.44793       -1.06644       -1.20362
C         -3.41205       -0.86493       -2.16046
C         -4.13075       -1.93798       -2.67302
H         -4.37110       -4.05358       -2.56708
H         -1.40907       -2.43435        0.02416
H         -3.61500        0.13925       -2.49439
C         -4.40596        2.70428        2.14498
C         -3.09005        3.13281        2.01694
C         -2.25824        2.42738        1.15755
C         -2.72281        1.33300        0.47031
C         -4.02126        0.91443        0.62353
C         -4.89152        1.59250        1.46660
H         -5.06479        3.24162        2.79920
H         -1.22735        2.71505        1.04325
H         -4.35243        0.03393        0.10079
C          4.28462       -2.75942        2.56377
C          2.94454       -3.11869        2.48061
C          2.12813       -2.39849        1.61701
C          2.64034       -1.36113        0.87760
C          3.96603       -1.01989        0.97593
C          4.81955       -1.71411        1.82082
H          4.91872       -3.30312        3.23846
H          1.07937       -2.62518        1.53269
H          4.33832       -0.19059        0.40071
C          3.90988        3.35139       -1.21400
C          2.86406        3.44668       -0.30366
C          2.13335        2.29770       -0.03266
C          2.43998        1.11503       -0.65718
C          3.47518        1.03569       -1.55633
C          4.23883        2.15977       -1.84893
H          4.50378        4.22104       -1.42292
H          1.33591        2.31644        0.69052
H          3.69425        0.08234       -2.00671
Pd        -0.18673       -0.04966        1.31705
C         -1.40103       -4.88314        0.26766
C         -2.57827       -4.85043       -0.72554
C         -2.23509       -5.76509       -1.91613
C         -3.83601       -5.37656       -0.01119
H         -1.20428       -5.90186        0.60142
H         -0.49005       -4.50387       -0.19407
H         -1.61746       -4.28309        1.15129
H         -2.00144       -6.77433       -1.57754
H         -3.06544       -5.83467       -2.61755
H         -1.37114       -5.38300       -2.45835
H         -4.68876       -5.41162       -0.68835
H         -3.67352       -6.38253        0.37534
H         -4.10039       -4.73109        0.82630
C         -5.92399       -2.99873       -4.13955
C         -5.25433       -1.68548       -3.69052
C         -4.68307       -0.98339       -4.93558
C         -6.32522       -0.78932       -3.04283
H         -5.20155       -3.66686       -4.60816
H         -6.37889       -3.51654       -3.29533
H         -6.71125       -2.80176       -4.86719
H         -5.47285       -0.76152       -5.65316
H         -4.19723       -0.04393       -4.67495
H         -3.95087       -1.61768       -5.43298
H         -6.72760       -1.25958       -2.14580
H         -5.91039        0.17786       -2.76142
H         -7.15233       -0.60968       -3.72943
C         -1.19149        3.98355        3.43095
C         -2.53995        4.34798        2.77740
C         -3.50134        4.80516        3.89191
C         -2.34314        5.50704        1.78575
H         -1.30216        3.11855        4.08456
H         -0.43665        3.74291        2.68504
H         -0.80998        4.81204        4.02735
H         -3.70707        3.99113        4.58682
H         -3.06906        5.62772        4.46161
H         -4.44695        5.15650        3.47997
H         -1.67667        5.21846        0.97468
H         -3.29462        5.80036        1.34255
H         -1.91646        6.37901        2.28113
C         -6.27476       -0.38048        2.15385
C         -6.32517        1.07231        1.64300
C         -7.05080        1.11981        0.28716
C         -7.12140        1.91776        2.65549
H         -7.27844       -0.77163        2.31912
H         -5.77600       -1.03545        1.44037
H         -5.72950       -0.43734        3.09572
H         -6.54414        0.49732       -0.44798
H         -8.07623        0.76218        0.37882
H         -7.08007        2.13825       -0.09973
H         -7.20382        2.95279        2.32434
H         -8.13271        1.52858        2.77301
H         -6.64685        1.90388        3.63650
C          0.91042       -4.52294        3.08142
C          2.39825       -4.24500        3.36909
C          2.54084       -3.83263        4.84523
C          3.19210       -5.53830        3.10744
H          0.76629       -4.81577        2.04224
H          0.53866       -5.33337        3.70817
H          0.29892       -3.64376        3.28395
H          2.14351       -4.60247        5.50642
H          3.58468       -3.66916        5.11064
H          1.99825       -2.90726        5.03819
H          3.12497       -5.82463        2.05797
H          4.24581       -5.41583        3.35463
H          2.80412       -6.36151        3.70715
C          6.36514        0.18247        2.36498
C          6.29140       -1.28760        1.90971
C          6.94438       -1.43200        0.52249
C          7.07628       -2.15186        2.91463
H          7.40012        0.50981        2.46187
H          5.87258        0.84398        1.65311
H          5.87764        0.31032        3.33121
H          6.44713       -0.80376       -0.21541
H          7.99478       -1.14302        0.55300
H          6.88715       -2.46349        0.17545
H          7.06407       -3.20178        2.62260
H          8.11819       -1.83582        2.96517
H          6.65667       -2.06601        3.91679
C          1.07888        5.15948        0.06388
C          2.51513        4.74886        0.42921
C          3.46539        5.89816        0.04270
C          2.62173        4.51808        1.94873
H          0.37229        4.37090        0.31556
H          0.78214        6.06337        0.59553
H          0.99525        5.35273       -1.00506
H          3.20213        6.81216        0.57500
H          4.49755        5.65520        0.29453
H          3.40981        6.11120       -1.02470
H          2.37725        5.42582        2.50002
H          1.94333        3.73374        2.28082
H          3.63330        4.21831        2.22160
C          5.61303        0.71663       -3.43437
C          5.46500        2.10024       -2.77126
C          6.72909        2.37691       -1.93631
C          5.33532        3.16246       -3.87931
H          5.76025       -0.06357       -2.68800
H          4.73281        0.46623       -4.02505
H          6.47472        0.69808       -4.10150
H          6.69190        3.36582       -1.48061
H          6.82985        1.64457       -1.13555
H          7.62488        2.32671       -2.55501
H          4.42494        3.01154       -4.45776
H          5.30364        4.16904       -3.46449
H          6.18113        3.11421       -4.56498
H         -1.74694       -1.74226       -5.09914
H          2.66040        1.53941       -4.63177
H         -0.34781       -0.82049       -5.64217
H         -1.48304       -0.11089       -4.48883
H          1.33653        0.85115       -5.56701
H          2.07641       -0.07833       -4.25977
