111
-148.56092671
P         -2.47657       -2.35237       -0.41113
P         -0.05192       -0.31584       -0.46042
C         -1.61606       -2.02417       -1.96788
C         -0.57086       -1.12754       -1.98589
C         -2.80907       -4.15542       -0.17334
C         -1.88935       -4.74098        0.87600
C         -2.01395       -2.64559       -3.13403
H         -2.83901       -3.33894       -3.11298
C         -1.35759       -2.36642       -4.32043
H         -1.66609       -2.85133       -5.23218
C         -0.31157       -1.46373       -4.33776
H          0.19781       -1.24401       -5.26158
C          0.08073       -0.83962       -3.16710
H          0.89270       -0.12940       -3.16504
Pd        -1.34638       -1.21932        1.24348
Cl        -2.76860       -2.04461        2.76619
Cl        -0.21514        0.07406        2.68883
C         -4.30396       -4.18277        0.19678
C         -4.20615       -1.69286       -0.39758
H         -2.08634       -5.80432        1.03157
H         -0.84014       -4.62706        0.59254
H         -2.02570       -4.23677        1.83427
H         -4.39559       -4.16103        1.29153
H         -4.76035       -5.13321       -0.11916
H         -4.31970       -1.16204        0.55710
C         -5.06705       -2.97010       -0.40847
C         -4.44869       -0.76018       -1.56550
H         -2.64483       -4.63518       -1.14678
H         -5.35044       -3.19708       -1.44537
H         -6.01440       -2.79708        0.12432
H         -4.32713       -1.28681       -2.51362
H         -5.45976       -0.34672       -1.54451
H         -3.73993        0.07110       -1.56391
C         -0.98667        4.14056       -0.50355
C          0.16983        3.65323       -1.16933
C          0.42699        2.29280       -1.12252
C         -0.45415        1.42639       -0.52949
C         -1.64269        1.87665       -0.01622
C         -1.95559        3.22544       -0.01319
O         -1.13110        5.52983       -0.25587
C          1.14584        4.54061       -1.96081
H          1.33550        1.89460       -1.54271
H         -2.32551        1.16290        0.41070
C         -3.32644        3.64409        0.54405
C          4.39167       -0.88792        0.39450
C          3.65864        0.12251        1.06669
C          2.30664        0.24170        0.79377
C          1.69725       -0.54792       -0.14525
C          2.42089       -1.46513       -0.86211
C          3.77922       -1.63086       -0.64728
O          5.72663       -1.17532        0.78553
C          4.29374        1.05776        2.10752
H          1.69807        0.94893        1.32996
H          1.90587       -2.05574       -1.59894
C          4.55991       -2.61658       -1.53155
C          0.58684        5.95164       -2.21277
C          2.47765        4.64466       -1.19933
C          1.40323        3.90388       -3.34437
C         -3.31100        3.51775        2.07665
C         -3.70354        5.08187        0.14727
C         -4.42328        2.71650       -0.02427
C         -0.50735        5.93870        0.95018
H          1.24834        6.52648       -2.86051
H         -0.39218        5.89793       -2.68764
H          0.47631        6.50418       -1.28288
H          2.92823        3.66152       -1.06828
H          3.18841        5.26795       -1.74130
H          2.33359        5.08009       -0.21218
H          1.89762        2.93759       -3.25955
H          0.46555        3.75614       -3.87940
H          2.04133        4.54324       -3.95388
H         -2.56282        4.17276        2.51836
H         -4.28010        3.78142        2.49926
H         -3.07834        2.49744        2.38033
H         -3.02884        5.80527        0.59892
H         -3.65349        5.20773       -0.93370
H         -4.71437        5.32700        0.47234
H         -5.41348        3.05370        0.28111
H         -4.39300        2.70649       -1.11343
H         -4.30956        1.69313        0.32886
H         -0.97049        5.43779        1.79852
H          0.55131        5.68463        0.92908
H         -0.61814        7.01718        1.06476
C          5.83510       -2.17547        1.79071
C          5.75903        1.36736        1.75220
C          3.54673        2.41052        2.15784
C          4.20826        0.40386        3.49496
C          3.92414       -2.70897       -2.93796
C          6.01462       -2.15274       -1.72926
C          4.53061       -4.01130       -0.88857
H          6.37094        0.46905        1.77322
H          5.82883        1.79578        0.75287
H          6.19152        2.07728        2.45678
H          4.07071        3.11818        2.79986
H          3.47530        2.85073        1.16424
H          2.54008        2.30145        2.55865
H          4.63525        1.05231        4.25950
H          3.17069        0.20415        3.76189
H          4.74361       -0.54200        3.51939
H          4.54706       -3.30379       -3.60561
H          2.94466       -3.18398       -2.90843
H          3.81242       -1.71862       -3.37874
H          6.54894       -2.81682       -2.40822
H          6.04301       -1.14668       -2.14644
H          6.55859       -2.13850       -0.78822
H          5.06811       -4.73488       -1.50095
H          3.50489       -4.36123       -0.77443
H          4.98770       -4.00088        0.09789
H          4.84604       -2.53222        2.08088
H          6.42728       -3.00963        1.41490
H          6.34372       -1.76377        2.66229
