171
-217.84825518
P         -1.61785        0.44022       -0.33788
P          1.61223       -0.28816       -0.24029
C         -0.84149        1.49750       -1.56995
C          0.97091       -1.16263       -1.66977
C          0.01638        0.97923       -2.53468
C          0.68060        1.87091       -3.39888
C          0.44116        3.23021       -3.28612
C         -0.42844        3.72273       -2.33673
C         -1.06173        2.85028       -1.47405
C          1.19856       -2.51350       -1.76208
C          0.69821       -3.22857       -2.83279
C         -0.03917       -2.58110       -3.80177
C         -0.28300       -1.21966       -3.72424
C          0.24124       -0.48799       -2.64131
Cl         1.46920        0.52234        2.95158
Cl        -1.68543       -0.33887        2.84091
C         -1.06883       -0.55022       -4.79706
C          1.64228        1.38684       -4.42714
H         -0.60807        4.78276       -2.26182
H         -1.73086        3.22820       -0.71825
H          1.77158       -3.00882       -0.99445
H          0.88539       -4.28689       -2.91198
H          0.95154        3.90645       -3.95114
H         -0.43513       -3.13573       -4.63570
C         -3.42745       -3.43824       -1.80296
C         -2.55422       -3.46744       -0.72255
C         -1.99235       -2.26616       -0.31269
C         -2.28984       -1.09653       -0.96666
C         -3.15750       -1.08246       -2.03115
C         -3.75129       -2.26141       -2.46757
H         -3.88698       -4.35162       -2.13054
H         -1.33500       -2.23734        0.53929
H         -3.37687       -0.14107       -2.50541
C         -4.84068        2.63132        1.98041
C         -3.51534        2.99942        2.17546
C         -2.54140        2.33192        1.44363
C         -2.89055        1.33767        0.56331
C         -4.20549        0.98461        0.38712
C         -5.21253        1.63008        1.09251
H         -5.60513        3.12893        2.54843
H         -1.49878        2.56586        1.57334
H         -4.43881        0.18734       -0.29542
C          4.20789       -3.06833        2.23906
C          2.82738       -3.16135        2.36029
C          2.05001       -2.32118        1.57358
C          2.63750       -1.39713        0.74419
C          4.00453       -1.30124        0.66023
C          4.82086       -2.14439        1.40286
H          4.82538       -3.73356        2.81382
H          0.97650       -2.36948        1.61895
H          4.43176       -0.55631        0.01403
C          3.96964        3.41752       -1.31681
C          2.92947        3.52376       -0.40238
C          2.22457        2.36976       -0.08633
C          2.53427        1.17831       -0.69274
C          3.54709        1.09498       -1.61689
C          4.29599        2.22041       -1.94203
H          4.55639        4.29090       -1.53354
H          1.43282        2.38845        0.64202
H          3.74811        0.14312       -2.07819
Pd        -0.05221        0.11913        1.35554
C         -0.71445       -5.03144       -0.05120
C         -2.22469       -4.75291        0.04867
C         -2.98171       -5.97018       -0.51585
C         -2.62773       -4.57094        1.52449
H         -0.43964       -5.91259        0.52817
H         -0.42546       -5.20657       -1.08664
H         -0.13147       -4.18952        0.31767
H         -2.73725       -6.87135        0.04643
H         -4.06006       -5.82485       -0.45396
H         -2.71537       -6.14937       -1.55738
H         -3.69699       -4.37836        1.60907
H         -2.39799       -5.46376        2.10569
H         -2.10470       -3.73145        1.97995
C         -6.13420       -2.77385       -3.04338
C         -4.78342       -2.29083       -3.60404
C         -4.30843       -3.25518       -4.70690
C         -4.98888       -0.89502       -4.22435
H         -6.05505       -3.77916       -2.63124
H         -6.47934       -2.11341       -2.24834
H         -6.89633       -2.79138       -3.82225
H         -3.33456       -2.95568       -5.09134
H         -4.21867       -4.27389       -4.33186
H         -5.01016       -3.26930       -5.54068
H         -5.36010       -0.18723       -3.48349
H         -4.05934       -0.50547       -4.63683
H         -5.71744       -0.93535       -5.03397
C         -3.58828        3.59062        4.60643
C         -3.16276        4.07748        3.20952
C         -3.90142        5.38321        2.86264
C         -1.64936        4.36703        3.23340
H         -3.08683        2.65538        4.85497
H         -3.33397        4.32479        5.37064
H         -4.66261        3.41640        4.65381
H         -3.63060        5.72409        1.86347
H         -4.98194        5.24807        2.88907
H         -3.64816        6.17359        3.56904
H         -1.08231        3.47677        3.50505
H         -1.30583        4.71447        2.25976
H         -1.41408        5.14185        3.96282
C         -6.88253        0.13703       -0.11547
C         -6.69135        1.24919        0.93533
C         -7.49203        2.48536        0.48652
C         -7.22877        0.74210        2.28588
H         -7.93698       -0.11662       -0.22357
H         -6.51771        0.45428       -1.09219
H         -6.35376       -0.77123        0.17329
H         -8.54432        2.23858        0.34639
H         -7.43325        3.28527        1.22362
H         -7.10703        2.87082       -0.45741
H         -7.16131        1.51267        3.05296
H         -8.27368        0.44354        2.20322
H         -6.65650       -0.12029        2.62732
C          0.69592       -3.90936        3.52840
C          2.20272       -4.17108        3.33392
C          2.88283       -4.05504        4.71229
C          2.39647       -5.59060        2.77516
H          0.14744       -4.06649        2.60215
H          0.27686       -4.58590        4.27297
H          0.51680       -2.88869        3.86645
H          2.41330       -4.72214        5.43502
H          3.93882       -4.31631        4.66277
H          2.80495       -3.03692        5.09328
H          1.92637       -5.68691        1.79669
H          3.45459       -5.82472        2.66133
H          1.95558       -6.33534        3.43755
C          6.82357       -0.96521        0.36634
C          6.35267       -2.07368        1.32848
C          6.89954       -3.42193        0.82537
C          6.91625       -1.77257        2.72945
H          7.91193       -0.92283        0.32680
H          6.46417       -1.14642       -0.64634
H          6.46690        0.01197        0.69146
H          6.63378       -4.23398        1.50117
H          6.49357       -3.65859       -0.15801
H          7.98617       -3.39677        0.74513
H          6.51612       -0.83314        3.11039
H          6.65752       -2.55807        3.43842
H          8.00280       -1.69159        2.70388
C          2.42873        5.94881       -0.83101
C          2.61559        4.87355        0.25635
C          3.78234        5.26445        1.17970
C          1.32284        4.80495        1.09286
H          1.63785        5.66225       -1.52319
H          2.15848        6.90740       -0.38843
H          3.34069        6.09669       -1.40773
H          3.93222        4.50840        1.95026
H          4.71194        5.35930        0.61933
H          3.58837        6.21675        1.67291
H          1.08371        5.78009        1.51682
H          0.47871        4.49313        0.47828
H          1.42565        4.10414        1.92102
C          5.38984        3.26608       -3.95938
C          5.49907        2.15697       -2.89474
C          5.57953        0.79775       -3.61727
C          6.78838        2.35692       -2.07815
H          4.46460        3.17349       -4.52609
H          5.40785        4.25704       -3.50807
H          6.22021        3.21084       -4.66319
H          6.41504        0.78082       -4.31696
H          5.73023       -0.01687       -2.90955
H          4.66968        0.59908       -4.18275
H          6.88550        1.58451       -1.31597
H          7.66856        2.31158       -2.71925
H          6.78824        3.32350       -1.57520
H         -1.84918       -1.20803       -5.17958
H          1.91409        0.34326       -4.26379
H         -0.42779       -0.27612       -5.63579
H         -1.55065        0.35661       -4.42879
H          2.56070        1.97282       -4.39944
H          1.22020        1.47535       -5.42913
