87
-129.18896685
P         -1.58400       -0.31553       -0.28651
P          1.63733        0.35837       -0.01884
C         -1.28578        0.97202       -1.50883
C          1.47138       -0.68526       -1.48176
C         -0.26533        0.84089       -2.44427
C         -0.02750        1.89993       -3.34279
C         -0.82791        3.02837       -3.28562
C         -1.84295        3.13398       -2.35918
C         -2.06580        2.10219       -1.46917
C          2.23869       -1.82413       -1.53455
C          2.11396       -2.70397       -2.59122
C          1.20391       -2.44222       -3.59197
C          0.41569       -1.30478       -3.55933
C          0.55903       -0.39590       -2.49253
Cl         1.24036        0.38416        3.20529
Cl        -1.51608       -1.25827        2.84013
H         -2.45407        4.02092       -2.32311
H         -2.85421        2.18032       -0.73945
H          2.94147       -2.02938       -0.74465
H          2.71838       -3.59550       -2.62739
H         -0.64258        3.83477       -3.97477
H          1.09230       -3.13137       -4.41185
C         -1.78268       -4.43037       -2.19782
C         -0.95329       -4.23004       -1.10287
C         -0.91666       -2.96857       -0.52155
C         -1.68913       -1.94657       -1.02258
C         -2.51693       -2.15518       -2.10050
C         -2.56543       -3.40462       -2.69061
H         -1.80766       -5.40005       -2.66508
C         -0.07984       -5.32114       -0.59246
H         -0.27030       -2.78640        0.32032
H         -3.10608       -1.33689       -2.48405
H         -3.20598       -3.57405       -3.54053
C         -5.34595        0.68646        2.08119
C         -5.33675       -0.41028        1.24207
C         -4.19773       -0.71889        0.52272
C         -3.07989        0.07267        0.64321
C         -3.08564        1.16343        1.48214
C         -4.21834        1.48382        2.21994
H         -6.23288        0.92995        2.64096
H         -6.21579       -1.02681        1.14920
H         -4.17421       -1.57683       -0.12875
H         -2.20087        1.77128        1.57411
C         -4.22110        2.67453        3.11261
C          5.39685       -0.77624        2.29122
C          5.33624        0.43415        1.62940
C          4.19750        0.77946        0.92640
C          3.12928       -0.08593        0.88973
C          3.18712       -1.29159        1.55067
C          4.32597       -1.65854        2.25705
H          6.27883       -1.04296        2.84823
H          6.17314        1.11220        1.66545
H          4.13355        1.72524        0.41415
H          2.33449       -1.95059        1.53546
C          4.36679       -2.94683        3.00071
C          1.48054        4.80377       -0.94438
C          2.36447        3.99127       -1.62726
C          2.42031        2.63937       -1.34279
C          1.59754        2.11631       -0.37319
C          0.72875        2.92583        0.32160
C          0.64485        4.28220        0.03371
H          1.43219        5.85583       -1.16799
H          3.00505        4.40833       -2.38690
H          3.08997        1.98632       -1.88010
H          0.10647        2.50436        1.09227
C         -0.30310        5.15191        0.78150
Pd        -0.05403       -0.23572        1.47792
C          1.06913        1.83676       -4.34864
C         -0.56849       -1.07315       -4.65317
H          1.63583        2.76879       -4.36412
H          1.76982        1.03109       -4.12699
H          0.66952        1.67122       -5.34986
H         -0.06768       -0.74172       -5.56357
H         -1.11354       -1.98919       -4.88520
H         -1.30340       -0.31641       -4.37679
H         -0.53379       -6.29936       -0.75684
H          0.88791       -5.30877       -1.09589
H          0.09718       -5.21331        0.47868
H         -4.98582        2.58788        3.88569
H         -3.25774        2.78978        3.61171
H         -4.41725        3.58475        2.54413
H          3.89195       -2.84299        3.97733
H          3.84227       -3.73156        2.45348
H          5.39319       -3.28108        3.15824
H          0.14012        5.49222        1.71834
H         -0.57677        6.03176        0.19752
H         -1.22221        4.61397        1.01945
