45
-71.82049697
C          0.35562        1.48723        3.18815
P         -0.16889        0.76703        1.59782
P         -0.11934        0.78577       -1.58032
C          0.48177        1.53575       -3.12903
Cl         2.94688        0.11959        1.70952
H          0.74838        2.48740        3.02908
H         -0.33039        1.61682       -3.84573
Cl         2.96263       -0.06044       -1.59451
C         -1.31849        1.82170        0.68606
C         -1.29526        1.83163       -0.69290
C         -2.20019        2.59986       -1.39631
C         -3.12737        3.36759       -0.71399
C         -3.15087        3.35749        0.66700
C         -2.24707        2.57989        1.36927
H         -2.18192        2.58923       -2.47412
H         -3.83392        3.96983       -1.26109
H         -3.87582        3.95178        1.19849
H         -2.26533        2.55399        2.44679
Pd         1.48348        0.38878        0.03110
H          1.26684        0.91727       -3.55470
H          1.13183        0.87010        3.63159
H          0.88192        2.52566       -2.92927
C         -1.77202       -3.42130       -2.02740
C         -0.40927       -3.20307       -2.08132
C          0.08484       -1.91685       -1.96878
C         -0.78347       -0.86288       -1.80370
C         -2.14146       -1.07378       -1.74684
C         -2.63957       -2.35913       -1.86207
H         -2.15943       -4.42355       -2.11078
H          0.26818       -4.03196       -2.20423
H          1.14563       -1.72261       -1.98922
H         -2.80308       -0.23564       -1.59822
H         -3.70223       -2.53122       -1.81368
C         -1.75873       -3.47757        1.87675
C         -0.40996       -3.23025        2.04241
C          0.06283       -1.93239        1.98068
C         -0.81378       -0.89643        1.75555
C         -2.15749       -1.13609        1.58649
C         -2.63397       -2.43312        1.65026
H         -2.12887       -4.48883        1.92023
H          0.27386       -4.04547        2.21244
H          1.11447       -1.71545        2.08456
H         -2.82359       -0.31115        1.39132
H         -3.68500       -2.62801        1.51413
H         -0.48684        1.53881        3.87186
