171
-217.84453286
P         -1.61936        0.34069       -0.50432
P          1.61525       -0.35637       -0.18800
C         -0.81568        1.31358       -1.77922
C          1.05771       -1.33583       -1.58602
C          0.09011        0.71766       -2.64945
C          0.77008        1.53031       -3.57754
C          0.48520        2.88467       -3.62815
C         -0.44458        3.44845       -2.78040
C         -1.08647        2.65815       -1.84730
C          1.32224       -2.68408       -1.58120
C          0.85075       -3.48994       -2.59811
C          0.09706       -2.93648       -3.61088
C         -0.18086       -1.57962       -3.63447
C          0.32709       -0.75245       -2.61472
Cl         1.28858        0.20461        2.97597
Cl        -1.89333       -0.49250        2.66480
C         -0.99288       -1.01613       -4.74684
C          1.78622        0.96481       -4.50732
H         -0.66448        4.50189       -2.84009
H         -1.80464        3.09163       -1.17010
H          1.90352       -3.11050       -0.78025
H          1.06652       -4.54592       -2.59530
H          1.00311        3.49996       -4.34450
H         -0.28468       -3.56206       -4.40007
C         -3.76751       -3.30464       -2.09646
C         -2.78084       -3.47184       -1.13253
C         -2.13303       -2.33679       -0.66199
C         -2.45416       -1.09900       -1.15970
C         -3.42307       -0.95032       -2.12141
C         -4.11071       -2.05691       -2.60487
H         -4.28796       -4.17579       -2.44691
H         -1.37394       -2.40669        0.09784
H         -3.65220        0.03780       -2.48472
C         -4.42579        2.75766        2.11951
C         -3.08179        3.10646        2.07103
C         -2.25594        2.38592        1.21879
C         -2.75533        1.35134        0.46576
C         -4.08484        1.01461        0.53387
C         -4.95154        1.72012        1.35974
H         -5.08309        3.28946        2.78127
H         -1.20323        2.60917        1.17097
H         -4.43481        0.17642       -0.04158
C          4.31966       -2.76314        2.55354
C          2.98900       -3.14503        2.42212
C          2.18491       -2.41609        1.55598
C          2.68979       -1.33883        0.87171
C          4.00156       -0.96708        1.02600
C          4.84754       -1.67536        1.86741
H          4.95776       -3.32128        3.21101
H          1.14845       -2.67888        1.42712
H          4.36903       -0.10723        0.49414
C          3.88418        3.41006       -1.23116
C          2.80813        3.50054       -0.35612
C          2.09445        2.34023       -0.08621
C          2.46190        1.14834       -0.65902
C          3.53024        1.07363       -1.51845
C          4.26736        2.21217       -1.82213
H          4.45623        4.29166       -1.45016
H          1.25245        2.35878        0.58391
H          3.79165        0.11486       -1.93350
Pd        -0.17118       -0.06757        1.28916
C         -1.26967       -4.84570        0.38084
C         -2.46439       -4.87281       -0.59182
C         -2.11460       -5.81068       -1.76245
C         -3.69534       -5.41280        0.15739
H         -1.03480       -5.84981        0.73356
H         -0.38117       -4.44815       -0.10821
H         -1.48721       -4.23290        1.25534
H         -1.27230       -5.41852       -2.33097
H         -1.84437       -6.80231       -1.39991
H         -2.95455       -5.92555       -2.44623
H         -3.49980       -6.40377        0.56669
H         -3.96287       -4.75272        0.98235
H         -4.55780       -5.48747       -0.50413
C         -5.88919       -3.20529       -4.02284
C         -5.23819       -1.86452       -3.63116
C         -4.67551       -1.20888       -4.90469
C         -6.32298       -0.95725       -3.02312
H         -5.15944       -3.87981       -4.47043
H         -6.32937       -3.69633       -3.15512
H         -6.68461       -3.05009       -4.75171
H         -4.20504       -0.25154       -4.68394
H         -3.93214       -1.85313       -5.37201
H         -5.46691       -1.03092       -5.63265
H         -6.72038       -1.39547       -2.10792
H         -5.92328        0.02690       -2.78168
H         -7.15125       -0.81864       -3.71777
C         -1.81356        5.26980        2.08185
C         -2.47269        4.19584        2.96456
C         -1.41403        3.55374        3.88185
C         -3.53746        4.87536        3.84649
H         -2.54384        5.71837        1.40866
H         -1.37906        6.06372        2.68907
H         -1.01849        4.84201        1.47522
H         -0.61674        3.08886        3.30367
H         -0.96159        4.29688        4.53800
H         -1.86353        2.78015        4.50394
H         -4.30791        5.34769        3.23730
H         -4.01390        4.15537        4.51156
H         -3.08737        5.64938        4.46804
C         -6.83403        0.23079        0.51724
C         -6.43385        1.34630        1.50150
C         -7.30735        2.58151        1.21224
C         -6.69055        0.85009        2.93578
H         -6.27054       -0.68296        0.70516
H         -7.89253       -0.01045        0.61369
H         -6.65793        0.54290       -0.51132
H         -8.36658        2.33301        1.27661
H         -7.11187        3.38360        1.92272
H         -7.11121        2.96507        0.21112
H         -6.46470        1.62488        3.66759
H         -7.73206        0.55763        3.06795
H         -6.06489       -0.01356        3.16051
C          3.35891       -4.88215        4.24669
C          2.38633       -4.33293        3.18521
C          2.06079       -5.45515        2.18477
C          1.09674       -3.88230        3.90073
H          2.89882       -5.69496        4.80853
H          4.26488       -5.27549        3.78626
H          3.64027       -4.10516        4.95730
H          1.61062       -6.31066        2.68795
H          1.36540       -5.10844        1.42222
H          2.96454       -5.79546        1.67962
H          0.67570       -4.69375        4.49389
H          1.30048       -3.04538        4.56827
H          0.33428       -3.56379        3.19150
C          7.08624       -2.10590        3.00236
C          6.30821       -1.22400        2.00740
C          6.34217        0.23100        2.51284
C          6.99706       -1.30943        0.63267
H          8.11879       -1.76857        3.09222
H          6.63846       -2.06534        3.99514
H          7.10677       -3.14471        2.67341
H          7.36793        0.57385        2.64705
H          5.85519        0.90700        1.81086
H          5.82830        0.31723        3.46997
H          8.04041       -1.00140        0.69842
H          6.96879       -2.32965        0.25052
H          6.50495       -0.66665       -0.09609
C          1.09892        5.31921       -0.40053
C          2.38139        4.82716        0.28830
C          3.47073        5.90752        0.14093
C          2.11771        4.61749        1.79300
H          0.73937        6.24390        0.05047
H          1.27949        5.50622       -1.45881
H          0.30942        4.57308       -0.32531
H          3.18095        6.82145        0.65942
H          4.41560        5.56880        0.56569
H          3.63396        6.16539       -0.90510
H          1.85916        5.55848        2.27827
H          1.29582        3.92480        1.96392
H          3.00224        4.21514        2.28621
C          5.70531        0.77646       -3.35563
C          5.51679        2.16494       -2.71328
C          6.75382        2.47688       -1.85121
C          5.39502        3.20951       -3.83921
H          5.85495        0.00859       -2.59708
H          4.84064        0.50140       -3.95862
H          6.57921        0.76738       -4.00688
H          7.66560        2.43747       -2.44692
H          6.68492        3.47026       -1.40902
H          6.84913        1.75656       -1.03897
H          5.33522        4.22120       -3.44033
H          6.25823        3.16741       -4.50327
H          4.50214        3.03328       -4.43759
H         -0.35823       -0.71657       -5.58157
H          1.39831        0.91341       -5.52554
H         -1.55804       -0.14227       -4.41954
H         -1.70518       -1.75285       -5.11903
H          2.08841       -0.03971       -4.20831
H          2.68182        1.58611       -4.52314
