111
-148.55507080
P         -2.76178       -1.83023        0.52994
P          0.08064       -0.61141       -0.23442
C         -1.97401       -2.27627       -1.04204
C         -0.72355       -1.78144       -1.34688
C         -3.68825       -3.24591        1.27849
C         -2.95293       -3.80990        2.47468
C         -2.62573       -3.09764       -1.93943
H         -3.61107       -3.46636       -1.70564
C         -2.01745       -3.42809       -3.13832
H         -2.52586       -4.06954       -3.83953
C         -0.76224       -2.93462       -3.43881
H         -0.29037       -3.18936       -4.37349
C         -0.11497       -2.10425       -2.54149
H          0.85767       -1.69550       -2.76709
Pd        -1.08513       -0.83579        1.75116
Cl        -2.51206       -0.63578        3.47074
Cl         0.65604        0.11514        2.80897
C         -5.06000       -2.62487        1.60359
C         -4.12733       -0.59451        0.35364
H         -3.50089       -4.64097        2.92493
H         -1.95895       -4.16879        2.19691
H         -2.82209       -3.04684        3.24358
H         -5.05119       -2.27886        2.64640
H         -5.84965       -3.38993        1.55299
H         -3.96103        0.15481        1.13929
C         -5.38488       -1.42674        0.66612
C         -4.12172        0.05207       -1.01450
H         -3.78815       -4.00548        0.49280
H         -5.80342       -1.80283       -0.27762
H         -6.16789       -0.78777        1.10215
H         -3.19066        0.59403       -1.19059
H         -4.21661       -0.70035       -1.79954
H         -4.94861        0.75709       -1.12705
C         -1.19918        3.61861       -1.32366
C         -0.62855        3.35278       -0.05272
C         -0.26388        2.05074        0.23938
C         -0.38270        1.05555       -0.69305
C         -0.82494        1.32821       -1.96052
C         -1.20653        2.60956       -2.32106
O         -1.80036        4.87894       -1.58258
C         -0.43935        4.43553        1.01997
H          0.10482        1.78292        1.21435
H         -0.88324        0.51759       -2.66527
C         -1.65177        2.87711       -3.76710
C          4.61541       -1.00041       -0.17562
C          3.83279       -1.80591        0.69127
C          2.45316       -1.69603        0.62464
C          1.85950       -0.77569       -0.19801
C          2.61372        0.07788       -0.96015
C          3.99706        0.01795       -0.94478
O          6.01154       -1.23215       -0.29642
C          4.45733       -2.79053        1.69257
H          1.81878       -2.32454        1.22566
H          2.10057        0.80195       -1.56939
C          4.79851        1.04252       -1.76304
C         -0.17549        5.81113        0.38169
C         -1.69207        4.49215        1.90739
C          0.78215        4.10988        1.91009
C         -0.91102        1.93833       -4.74657
C         -3.16170        2.62220       -3.89100
C         -1.32047        4.31930       -4.19185
C         -3.18172        4.93750       -1.24943
H         -1.02847        6.14817       -0.20191
H          0.02133        6.56531        1.14322
H          0.68689        5.76646       -0.28265
H         -2.57681        4.73812        1.32490
H         -1.86800        3.52912        2.38641
H         -1.58343        5.24341        2.68912
H          1.66886        3.93351        1.30175
H          0.99894        4.93587        2.58696
H          0.60942        3.22921        2.52678
H         -1.12652        2.20962       -5.77981
H          0.16733        2.00049       -4.60196
H         -1.21517        0.90044       -4.61914
H         -3.50708        2.80986       -4.90732
H         -3.40026        1.58901       -3.64012
H         -3.72661        3.26479       -3.21983
H         -1.57489        4.48817       -5.23791
H         -1.87205        5.04430       -3.59859
H         -0.25770        4.52229       -4.06402
H         -3.34580        5.71606       -0.50463
H         -3.76185        5.18782       -2.13748
H         -3.51876        3.97870       -0.85316
C          6.35780       -2.17585       -1.30206
C          5.81946       -2.27952        2.19650
C          3.55089       -2.94997        2.93480
C          4.62144       -4.16319        1.02330
C          6.14167        1.36429       -1.08312
C          5.03885        0.48974       -3.17579
C          4.02199        2.37482       -1.87944
H          6.54387       -2.21737        1.38826
H          5.71861       -1.28589        2.63182
H          6.23048       -2.94326        2.95673
H          4.04925       -3.53796        3.70512
H          3.30485       -1.97798        3.36173
H          2.62130       -3.46291        2.69308
H          3.65741       -4.54750        0.69089
H          5.27087       -4.10218        0.15325
H          5.05273       -4.88597        1.71542
H          6.68189        2.13773       -1.62848
H          5.98112        1.71618       -0.06459
H          6.78225        0.48713       -1.03559
H          5.60441       -0.43847       -3.14469
H          4.09225        0.28471       -3.67538
H          5.59471        1.20239       -3.78459
H          3.12942        2.27004       -2.49459
H          4.64004        3.14369       -2.34246
H          3.72052        2.73514       -0.89612
H          5.46180       -2.54489       -1.80271
H          7.01548       -1.70576       -2.03302
H          6.89264       -3.01139       -0.85084
