72
-108.40254688
Cl         1.71563       -0.89693        2.65924
Cl        -0.91880        0.83653        2.80166
P         -1.11918        1.14939       -0.27520
P          2.25990       -0.12097       -0.37692
C          3.25613        1.47260       -0.11363
C          3.60793        1.60535        1.36957
C          4.52436        1.43892       -0.95874
C          3.33057       -1.67792       -0.14582
C          4.15415       -1.95060       -1.41109
C          1.45502       -0.38676       -2.06278
C          1.52239        0.79342       -3.00941
C         -1.12678       -0.18097       -1.51361
C          0.03730       -0.92375       -1.99254
C         -0.47198       -2.01930       -2.81947
C         -1.91693       -1.91613       -2.89383
C         -2.31830       -0.78430       -2.08063
C          2.40074        2.67185       -0.50011
H          4.11019        2.55521        1.56008
H          2.71496        1.57687        1.99401
H          5.05559        2.38969       -0.89076
H          4.30054        1.26050       -2.00952
C          4.27757       -1.56249        1.04465
H          4.91989       -2.70230       -1.21232
H          4.65812       -1.05439       -1.76805
H          2.05950       -1.18829       -2.49741
H          0.87395        1.59534       -2.66443
H          1.16739        0.51678       -4.00430
H          2.53453        1.18103       -3.11994
H          0.14581       -2.71482       -3.39093
H         -2.58251       -2.56638       -3.46607
Pd         0.50896        0.25382        1.16065
H         -3.33945       -0.44813       -1.88856
C          2.35598       -2.82402        0.08356
H          3.54253       -2.34218       -2.22304
H          3.74851       -1.27388        1.95048
H          4.75806       -2.52163        1.24313
H          5.07314       -0.84403        0.85572
H          1.84695       -2.70880        1.03919
H          1.60593       -2.86491       -0.70759
H          2.87794       -3.78279        0.10289
H          4.27754        0.81933        1.70786
H          5.20969        0.66339       -0.62077
H          2.17689        2.69274       -1.56347
H          1.46410        2.66589        0.05444
H          2.91463        3.60543       -0.26476
C         -2.79132        1.23181        0.41774
C         -3.23022        2.18887        1.29860
C         -4.56067        1.89403        1.59604
C         -4.88183        0.76764        0.87994
O         -3.80513        0.35103        0.15191
H         -2.64579        2.99950        1.70128
H         -5.20809        2.44110        2.26174
H         -5.84287        0.26834        0.88286
C         -0.73588        2.76544       -0.97301
C         -0.65798        3.91175       -0.22101
C         -0.34627        4.95368       -1.09553
C         -0.24760        4.39813       -2.34759
O         -0.48087        3.05377       -2.28596
H         -0.79218        3.98173        0.84640
H         -0.20940        5.99127       -0.83815
H         -0.01686        4.93313       -3.26046
Fe        -1.30828       -2.13500       -0.95421
C         -3.00847       -2.80949        0.00056
C         -2.19755       -2.01044        0.89768
C         -0.89038       -2.62670        0.97796
C         -0.89082       -3.82243        0.15577
C         -2.19708       -3.91859       -0.46993
H         -4.04909       -2.61132       -0.26561
H         -2.50965       -1.10286        1.41767
H         -0.08357       -2.28539        1.62923
H         -0.06914       -4.53314        0.04359
H         -2.52833       -4.71431       -1.14110
