171
-217.84783933
P         -1.60885        0.42969       -0.33808
P          1.60044       -0.29351       -0.23468
C         -0.83585        1.48398       -1.57409
C          0.96826       -1.17530       -1.66449
C          0.01625        0.96190       -2.54158
C          0.67591        1.85018       -3.41285
C          0.43715        3.20995       -3.30388
C         -0.42694        3.70616       -2.35135
C         -1.05551        2.83705       -1.48187
C          1.19915       -2.52598       -1.75138
C          0.70397       -3.24595       -2.82115
C         -0.03252       -2.60382       -3.79431
C         -0.27929       -1.24261       -3.72267
C          0.24140       -0.50562       -2.64158
Cl         1.49059        0.58824        2.93380
Cl        -1.68412       -0.30473        2.85766
C         -1.06592       -0.58015       -4.79919
C          1.63173        1.36195       -4.44459
H         -0.60640        4.76644       -2.27969
H         -1.72080        3.21775       -0.72409
H          1.77083       -3.01753       -0.98042
H          0.89413       -4.30405       -2.89605
H          0.94377        3.88367       -3.97431
H         -0.42561       -3.16246       -4.62693
C         -3.44884       -3.43346       -1.80767
C         -2.57346       -3.47126       -0.72929
C         -2.00186       -2.27497       -0.31823
C         -2.29272       -1.10162       -0.96860
C         -3.16185       -1.07935       -2.03181
C         -3.76504       -2.25307       -2.46958
H         -3.91602       -4.34274       -2.13584
H         -1.34069       -2.25346        0.53097
H         -3.37479       -0.13560       -2.50428
C         -4.82010        2.64322        1.97545
C         -3.49225        2.99871        2.17646
C         -2.52165        2.32538        1.44537
C         -2.87645        1.33593        0.56189
C         -4.19392        0.99530        0.38004
C         -5.19773        1.64817        1.08315
H         -5.58210        3.14600        2.54220
H         -1.47733        2.54905        1.57962
H         -4.43213        0.20213       -0.30551
C          4.22158       -3.05162        2.24448
C          2.84180       -3.17289        2.34787
C          2.05779       -2.33843        1.56171
C          2.63686       -1.39359        0.74988
C          4.00265       -1.26968        0.68447
C          4.82627       -2.10552        1.42724
H          4.84538       -3.71265        2.81716
H          0.98506       -2.41081        1.59069
H          4.42300       -0.50907        0.05220
C          3.94938        3.41558       -1.31919
C          2.91050        3.52227       -0.40341
C          2.20643        2.36831       -0.08495
C          2.51617        1.17635       -0.69031
C          3.52837        1.09244       -1.61515
C          4.27618        2.21784       -1.94275
H          4.53537        4.28900       -1.53783
H          1.41622        2.38677        0.64508
H          3.73074        0.13951       -2.07375
Pd        -0.04878        0.07956        1.37226
C         -0.74299       -5.05357       -0.07648
C         -2.24965       -4.76138        0.03671
C         -3.02282       -5.97030       -0.52392
C         -2.63834       -4.57924        1.51637
H         -0.47106       -5.93774        0.49967
H         -0.46465       -5.23016       -1.11459
H         -0.14942       -4.21721        0.28818
H         -2.78369       -6.87455        0.03572
H         -4.09918       -5.81404       -0.45456
H         -2.76538       -6.15117       -1.56739
H         -2.10092       -3.74811        1.97043
H         -3.70440       -4.37370        1.61035
H         -2.41505       -5.47683        2.09272
C         -6.15444       -2.74103       -3.03920
C         -4.80010       -2.27268       -3.60366
C         -4.33846       -3.24311       -4.70694
C         -4.99217       -0.87537       -4.22487
H         -6.08462       -3.74670       -2.62625
H         -6.49073       -2.07633       -2.24395
H         -6.91867       -2.75138       -3.81615
H         -3.36240       -2.95475       -5.09426
H         -4.25899       -4.26248       -4.33142
H         -5.04250       -3.25022       -5.53887
H         -5.35521       -0.16318       -3.48419
H         -4.05923       -0.49564       -4.63887
H         -5.72219       -0.90896       -5.03348
C         -3.56855        3.57662        4.61049
C         -3.13436        4.06797        3.21781
C         -3.86100        5.38175        2.87594
C         -1.61889        4.34470        3.24852
H         -3.07517        2.63615        4.85545
H         -3.31125        4.30451        5.37968
H         -4.64434        3.41041        4.65318
H         -4.94271        5.25591        2.89965
H         -3.60228        6.16644        3.58668
H         -3.58526        5.72516        1.87898
H         -1.06003        3.44813        3.51636
H         -1.26994        4.69526        2.27805
H         -1.37952        5.11313        3.98336
C         -6.87662        0.17338       -0.13468
C         -6.67957        1.28301        0.91764
C         -7.46420        2.52796        0.46481
C         -7.23023        0.78114        2.26480
H         -7.93299       -0.06965       -0.24825
H         -6.50374        0.48748       -1.10935
H         -6.35838       -0.74021        0.15634
H         -8.51825        2.29267        0.31823
H         -7.40107        3.32678        1.20275
H         -7.06938        2.90977       -0.47656
H         -7.15908        1.55056        3.03269
H         -8.27778        0.49385        2.17587
H         -6.66927       -0.08751        2.60913
C          0.71592       -3.96119        3.49844
C          2.22361       -4.21150        3.29495
C          2.90446       -4.13161        4.67569
C          2.42287       -5.61393        2.69663
H          0.16544       -4.10134        2.57064
H          0.30185       -4.65540        4.22943
H          0.53305       -2.94869        3.85831
H          2.43448       -4.81673        5.38107
H          3.96003       -4.39317        4.61950
H          2.82768       -3.12367        5.08305
H          1.95183       -5.68508        1.71644
H          3.48200       -5.83950        2.57490
H          1.98639       -6.37889        3.33857
C          6.81790       -0.87651        0.42807
C          6.35720       -2.00423        1.37255
C          6.93662       -3.33596        0.86187
C          6.89758       -1.70749        2.78354
H          7.90563       -0.81256        0.40240
H          6.47437       -1.05397       -0.59077
H          6.43827        0.09006        0.75891
H          6.67931       -4.16035        1.52591
H          6.54694       -3.57006       -0.12869
H          8.02340       -3.28844        0.79477
H          7.98265       -1.60595        2.77253
H          6.47510       -0.77981        3.16912
H          6.64484       -2.50515        3.48099
C          2.41119        5.94786       -0.83171
C          2.59932        4.87256        0.25542
C          3.76839        5.26254        1.17628
C          1.30850        4.80519        1.09451
H          1.61840        5.66208       -1.52204
H          2.14301        6.90681       -0.38866
H          3.32197        6.09472       -1.41055
H          3.91922        4.50641        1.94658
H          4.69689        5.35652        0.61395
H          3.57632        6.21507        1.66980
H          1.07130        5.78057        1.51903
H          0.46296        4.49420        0.48143
H          1.41257        4.10414        1.92231
C          5.36631        3.25859       -3.96443
C          5.47917        2.15404       -2.89548
C          5.56352        0.79201       -3.61217
C          6.76818        2.36136       -2.08018
H          4.44099        3.16138       -4.53018
H          5.38180        4.25134       -3.51695
H          6.19642        3.20288       -4.66850
H          6.39929        0.77430       -4.31152
H          5.71609       -0.01916       -2.90086
H          4.65441        0.58844       -4.17708
H          6.86721        1.59336       -1.31385
H          7.64836        2.31460       -2.72117
H          6.76599        3.33061       -1.58240
H         -1.53605        0.33664       -4.44062
H          1.90731        0.32014       -4.27635
H         -1.85568       -1.23542       -5.16634
H         -0.42834       -0.32480       -5.64643
H          2.54878        1.95041       -4.42727
H          1.20243        1.44286       -5.44415
