64
-97.22019436
Cl        -1.22973       -0.34316       -2.86479
Cl         1.93858       -0.69355       -2.88310
P          1.97213       -0.65895        0.36579
C          2.09398       -2.40968        0.96600
C          3.78760       -0.29155        0.20349
P         -1.27431       -0.32949        0.35822
C          1.16848        0.46798        1.56299
C         -0.27554        0.60560        1.58079
C         -0.61629        1.61668        2.57092
C          0.62408        2.12037        3.13606
C          1.72891        1.39895        2.52810
H         -1.62379        1.91716        2.86510
H          0.70909        2.87970        3.91719
Pd         0.34670       -0.69313       -1.30617
H          2.79056        1.53780        2.74139
C         -5.15978        1.65343       -0.97609
C         -4.83605        0.37811       -1.39396
C         -3.65267       -0.20417       -0.97559
C         -2.79710        0.48877       -0.14965
C         -3.12473        1.75610        0.27507
C         -4.30527        2.34350       -0.13974
H         -6.07995        2.11008       -1.30249
H         -5.50087       -0.16274       -2.04725
H         -3.38563       -1.19845       -1.29775
H         -2.45425        2.28631        0.92710
H         -4.55678        3.33854        0.18908
C         -2.40720       -4.42330        1.96450
C         -1.99644       -4.29285        0.65209
C         -1.65599       -3.04692        0.15752
C         -1.72448       -1.94609        0.97997
C         -2.14149       -2.06702        2.28541
C         -2.48299       -3.31250        2.78219
H         -2.67247       -5.39402        2.35060
H         -1.94249       -5.15899        0.01319
H         -1.34465       -2.92651       -0.86775
H         -2.19055       -1.18834        2.90936
H         -2.80641       -3.41443        3.80508
C          4.16490        0.60860       -0.95260
H          4.07534        0.17242        1.15619
C          4.40076       -1.69879        0.10669
H          5.46030       -1.67696        0.40445
C          3.60318       -2.72088        0.95646
H          4.39608       -2.01184       -0.94676
C          1.46371       -2.54571        2.33514
H          1.56442       -3.02188        0.22389
H          3.97437       -2.70026        1.98992
H          3.78130       -3.74751        0.60363
H          0.41188       -2.25812        2.32056
H          1.52874       -3.57120        2.70618
H          1.96581       -1.89701        3.05571
H          5.24892        0.71141       -1.03388
H          3.80549        0.20080       -1.89686
H          3.74887        1.60902       -0.83926
Fe         0.59737        2.37963        1.12955
C          1.21509        2.46329       -0.82510
C          1.89554        3.43506        0.01155
C          0.88567        4.29332        0.61014
C         -0.41737        3.86352        0.13154
C         -0.20928        2.71173       -0.72697
H          1.67341        1.70265       -1.46032
H          2.97562        3.53439        0.14355
H          1.07716        5.14582        1.26669
H         -1.37553        4.33355        0.36399
H         -0.97826        2.16489       -1.27646
