171
-217.84626275
P         -1.59848        0.36859       -0.48920
P          1.63362       -0.34653       -0.24361
C         -0.81301        1.35941       -1.76321
C          1.05708       -1.28688       -1.66017
C          0.08140        0.79067       -2.66290
C          0.75054        1.63125       -3.57368
C          0.46995        2.98737       -3.57630
C         -0.44476        3.52627       -2.69682
C         -1.07650        2.70731       -1.78166
C          1.32300       -2.63413       -1.69031
C          0.85428       -3.41206       -2.73058
C          0.10038       -2.83288       -3.72888
C         -0.18109       -1.47669       -3.71533
C          0.32295       -0.67809       -2.67132
Cl         1.35610        0.34977        2.91946
Cl        -1.78392       -0.41742        2.71982
C         -0.98345       -0.88000       -4.81772
C          1.75506        1.09565       -4.53333
H         -0.66112        4.58184       -2.71812
H         -1.77842        3.12174       -1.07581
H          1.90179       -3.07993       -0.89745
H          1.07516       -4.46652       -2.75984
H          0.98061        3.62405       -4.27906
H         -0.27670       -3.43716       -4.53665
C         -3.71378       -3.40128       -1.82890
C         -2.75361       -3.48072       -0.82716
C         -2.09509       -2.31332       -0.46663
C         -2.38856       -1.12433       -1.08637
C         -3.33692       -1.06219       -2.07802
C         -4.03237       -2.20351       -2.46014
H         -4.23583       -4.29358       -2.11528
H         -1.35681       -2.32834        0.31687
H         -3.54892       -0.11261       -2.54045
C         -4.54696        2.78823        1.97330
C         -3.19122        3.07050        2.08508
C         -2.30835        2.34471        1.29534
C         -2.76987        1.36232        0.45356
C         -4.11215        1.08928        0.36679
C         -5.03183        1.79767        1.12786
H         -5.23683        3.35325        2.57132
H         -1.24847        2.52318        1.35053
H         -4.44547        0.30691       -0.29184
C          4.28733       -2.89432        2.41087
C          2.92672       -3.17084        2.36605
C          2.13472       -2.39645        1.52798
C          2.68663       -1.37543        0.79374
C          4.03087       -1.10651        0.86368
C          4.86367       -1.86900        1.67205
H          4.91577       -3.48941        3.04769
H          1.07526       -2.57173        1.45682
H          4.42396       -0.28698        0.28961
C          3.87418        3.46091       -1.21069
C          2.81942        3.51118       -0.30724
C          2.12783        2.33458       -0.05378
C          2.48623        1.16635       -0.67825
C          3.53061        1.13159       -1.56941
C          4.25120        2.28671       -1.85165
H          4.43426        4.35434       -1.41246
H          1.31229        2.32373        0.64894
H          3.78375        0.19212       -2.03063
Pd        -0.11537       -0.03995        1.26550
C         -0.95811       -5.17002       -0.39142
C         -2.41785       -4.78720       -0.09394
C         -3.32937       -5.94592       -0.54117
C         -2.60394       -4.58113        1.42203
H         -0.67239       -6.07529        0.14393
H         -0.82051       -5.35054       -1.45696
H         -0.27555       -4.37417       -0.09736
H         -3.08911       -6.85857        0.00416
H         -4.37769       -5.71450       -0.35317
H         -3.20576       -6.15614       -1.60335
H         -3.62880       -4.28661        1.64661
H         -2.38777       -5.49785        1.97027
H         -1.94432       -3.80310        1.80339
C         -4.53931       -1.68387       -4.86442
C         -5.14610       -2.10014       -3.51429
C         -6.17451       -1.04483       -3.06531
C         -5.88184       -3.44134       -3.70216
H         -4.03032       -0.72386       -4.78760
H         -3.81863       -2.42634       -5.20552
H         -5.31218       -1.59140       -5.62731
H         -6.58470       -1.29787       -2.08787
H         -5.72140       -0.05697       -2.99635
H         -7.00179       -0.98027       -3.77187
H         -5.20359       -4.21556       -4.06029
H         -6.32957       -3.77688       -2.76682
H         -6.68280       -3.34317       -4.43487
C         -1.17159        4.20509        3.13824
C         -2.70975        4.13371        3.08262
C         -3.22310        3.78034        4.49137
C         -3.25162        5.50962        2.65752
H         -0.76093        4.49910        2.17403
H         -0.84322        4.94065        3.87235
H         -0.74449        3.24255        3.41971
H         -2.87597        2.79061        4.78769
H         -2.86497        4.49871        5.22854
H         -4.31152        3.77933        4.53089
H         -2.90437        5.76704        1.65694
H         -4.34101        5.51809        2.64609
H         -2.91770        6.28917        3.34207
C         -7.01067        1.83110       -0.40366
C         -6.52557        1.46338        1.00939
C         -7.36811        2.24144        2.03845
C         -6.73385       -0.04405        1.25478
H         -8.06725        1.59500       -0.52895
H         -6.87662        2.89613       -0.59206
H         -6.45225        1.28634       -1.16319
H         -8.42053        1.96841        1.96182
H         -7.04246        2.02297        3.05535
H         -7.29598        3.31642        1.87474
H         -6.35389       -0.32934        2.23552
H         -7.79155       -0.30345        1.21340
H         -6.21691       -0.64608        0.50874
C          2.92643       -5.63859        2.80038
C          2.34020       -4.28639        3.24253
C          0.80499       -4.35282        3.12528
C          2.69722       -4.01714        4.71649
H          4.01057       -5.65228        2.90741
H          2.52040       -6.45438        3.39825
H          2.69080       -5.83616        1.75469
H          0.39924       -5.12852        3.77446
H          0.34840       -3.40633        3.41473
H          0.50196       -4.58725        2.10625
H          3.77507       -4.02251        4.87299
H          2.31774       -3.04494        5.03061
H          2.26338       -4.77570        5.36774
C          6.80267       -0.43253        0.86426
C          6.36957       -1.59248        1.78298
C          7.15201       -2.85420        1.37489
C          6.70823       -1.21638        3.23686
H          7.87453       -0.25286        0.94622
H          6.58466       -0.65780       -0.17951
H          6.29259        0.49242        1.13292
H          6.92156       -3.69341        2.03006
H          6.90366       -3.14745        0.35501
H          8.22667       -2.67934        1.42370
H          7.76953       -0.99373        3.34570
H          6.14444       -0.33675        3.54701
H          6.46514       -2.02758        3.92213
C          0.99804        5.20596       -0.04875
C          2.40535        4.79827        0.41933
C          3.37565        5.95855        0.12609
C          2.39821        4.54615        1.93970
H          0.28083        4.40407        0.11971
H          0.64817        6.09121        0.48195
H          1.00082        5.43083       -1.11474
H          4.39112        5.70593        0.43084
H          3.38382        6.20611       -0.93519
H          3.08003        6.85578        0.66980
H          2.12240        5.44916        2.48395
H          1.69001        3.76535        2.21243
H          3.38455        4.23355        2.28164
C          6.73133        2.60508       -1.94973
C          5.47474        2.28451       -2.77989
C          5.29876        3.35057       -3.87818
C          5.67369        0.91374       -3.45606
H          6.65552        3.58646       -1.48269
H          6.86839        1.86880       -1.15836
H          7.62433        2.59955       -2.57446
H          6.14474        3.34371       -4.56529
H          4.39483        3.16778       -4.45733
H          5.22630        4.35121       -3.45424
H          4.80077        0.63430       -4.04484
H          6.53205        0.93498       -4.12739
H          5.85525        0.13356       -2.71720
H         -1.67982       -1.60881       -5.23264
H          2.66115        1.70098       -4.51873
H         -0.33972       -0.53995       -5.62955
H         -1.56400       -0.02617       -4.46536
H          1.36573        1.10449       -5.55229
H          2.04020        0.07197       -4.28739
