111
-148.56025815
P         -2.51336       -2.26732       -0.46353
P         -0.01259       -0.32104       -0.47328
C         -1.60805       -1.97683       -2.00451
C         -0.52115       -1.13068       -2.00249
C         -3.00681       -4.04099       -0.28132
C         -2.16890       -4.73217        0.77230
C         -2.01105       -2.57989       -3.17867
H         -2.87224       -3.22799       -3.17640
C         -1.31474       -2.33841       -4.35044
H         -1.62728       -2.80958       -5.26801
C         -0.22272       -1.49186       -4.34574
H          0.31894       -1.30274       -5.25790
C          0.17303       -0.88295       -3.16829
H          1.02071       -0.21611       -3.14912
Pd        -1.25627       -1.31328        1.21834
Cl        -2.85380       -1.99602        2.63700
Cl         0.03971       -0.22986        2.69303
C         -4.50732       -3.94672        0.05388
C         -4.17724       -1.45860       -0.45592
H         -2.46282       -5.77735        0.89425
H         -1.10698       -4.70508        0.51599
H         -2.28419       -4.24227        1.74067
H         -4.62420       -3.94921        1.14641
H         -5.03740       -4.84325       -0.30204
H         -4.26447       -0.95458        0.51569
C         -5.14581       -2.65385       -0.52935
C         -4.31087       -0.46836       -1.59354
H         -2.86103       -4.51034       -1.26257
H         -5.42018       -2.82303       -1.57966
H         -6.08825       -2.41442       -0.01374
H         -5.28712        0.02202       -1.58461
H         -3.54025        0.30426       -1.54060
H         -4.20142       -0.96910       -2.55714
C         -1.06213        4.11202       -0.45834
C          0.01262        3.64036       -1.25850
C          0.30799        2.28711       -1.22607
C         -0.46797        1.41022       -0.51330
C         -1.59242        1.84249        0.14120
C         -1.93808        3.18304        0.16291
O         -1.20716        5.50128       -0.21071
C          0.85833        4.53889       -2.17700
H          1.16601        1.90366       -1.75256
H         -2.19705        1.12244        0.66414
C         -3.24244        3.57755        0.87603
C          4.41928       -0.86411        0.43536
C          3.72089        0.25925        0.94628
C          2.37351        0.38176        0.65192
C          1.73894       -0.52078       -0.16000
C          2.43091       -1.55628       -0.73214
C          3.78411       -1.73002       -0.49180
O          5.73909       -1.14226        0.88039
C          4.38364        1.31061        1.84971
H          1.78741        1.17853        1.07680
H          1.89364       -2.23568       -1.37063
C          4.53181       -2.85988       -1.21768
C          0.96233        3.88507       -3.57254
C          0.23210        5.92977       -2.37822
C          2.26963        4.69234       -1.58651
C         -4.37953        2.62899        0.43718
C         -3.04665        3.45455        2.39642
C         -3.69142        5.00721        0.52755
C         -0.45451        5.93858        0.90872
H         -0.02923        3.70202       -3.98562
H          1.50141        4.53096       -4.26515
H          1.49182        2.93451       -3.53576
H         -0.79532        5.84142       -2.72962
H          0.21914        6.49473       -1.44925
H          0.79316        6.51132       -3.10937
H          2.23500        5.14154       -0.59564
H          2.76065        3.72403       -1.49735
H          2.89056        5.32448       -2.22075
H         -5.33135        2.93817        0.86827
H         -4.48560        2.63195       -0.64720
H         -4.19815        1.60501        0.75841
H         -3.96380        3.70465        2.92892
H         -2.76513        2.43852        2.67169
H         -2.26202        4.12202        2.74721
H         -2.98437        5.74444        0.90040
H         -3.76778        5.13352       -0.55184
H         -4.66330        5.23186        0.96634
H          0.60246        5.72658        0.75506
H         -0.59250        7.01229        1.03771
H         -0.78796        5.42238        1.80748
C          5.79846       -1.99115        2.01991
C          3.69925        2.68655        1.68150
C          4.24696        0.87322        3.31602
C          5.86708        1.50116        1.48577
C          6.00535       -2.48539       -1.46040
C          4.44264       -4.14727       -0.38444
C          3.90255       -3.12491       -2.60483
H          3.66941        2.97705        0.63226
H          2.68054        2.68205        2.06623
H          4.24266        3.45815        2.22639
H          4.69120        1.60835        3.98650
H          3.19739        0.75906        3.58637
H          4.73808       -0.08105        3.49019
H          6.43757        0.59134        1.65447
H          5.97258        1.77160        0.43565
H          6.31967        2.28974        2.08642
H          6.54288       -2.35978       -0.52395
H          6.51724       -3.25886       -2.03240
H          6.07717       -1.55007       -2.01449
H          4.89270       -4.01436        0.59641
H          3.40311       -4.43820       -0.23504
H          4.95561       -4.97032       -0.88135
H          3.83463       -2.20308       -3.18202
H          2.90406       -3.55131       -2.52114
H          4.50508       -3.83243       -3.17403
H          6.30741       -1.47551        2.83409
H          4.79338       -2.27070        2.33839
H          6.36677       -2.88919        1.77837
