64
-97.22101201
Cl        -1.37499       -0.39240       -2.78576
Cl         1.85404       -0.81764       -2.92485
P          1.96616       -0.70144        0.30093
C          2.06211       -2.45682        0.89345
C          3.78494       -0.38081        0.08050
P         -1.26912       -0.27142        0.38410
C          1.23048        0.43852        1.52812
C         -0.20742        0.62085        1.58619
C         -0.49117        1.62738        2.59913
C          0.77658        2.08461        3.14130
C          1.84156        1.34969        2.48148
H         -1.48149        1.95033        2.92594
H          0.90530        2.83081        3.92868
Pd         0.29387       -0.71501       -1.32569
H          2.91223        1.45573        2.66650
C         -5.14685        1.84408       -0.76236
C         -4.88681        0.55961       -1.19623
C         -3.70481       -0.06295       -0.83623
C         -2.78666        0.59862       -0.05282
C         -3.05120        1.87511        0.38843
C         -4.23001        2.50291        0.03203
H         -6.06594        2.33212       -1.04320
H         -5.60048        0.04273       -1.81656
H         -3.48797       -1.06501       -1.17141
H         -2.33328        2.38075        1.00856
H         -4.43166        3.50492        0.37378
C         -2.48131       -4.34194        1.99276
C         -2.13319       -4.20707        0.66279
C         -1.76920       -2.96773        0.16867
C         -1.75107       -1.87829        1.00864
C         -2.10658       -2.00305        2.33178
C         -2.47161       -3.24190        2.82833
H         -2.76483       -5.30752        2.37877
H         -2.14671       -5.06437        0.00999
H         -1.50864       -2.84199       -0.87002
H         -2.08935       -1.13296        2.96926
H         -2.74653       -3.34715        3.86497
C          4.14945        0.50519       -1.09071
H          4.11390        0.07901        1.02181
C          4.36005       -1.80299       -0.02995
H          5.42793       -1.80683        0.23715
C          3.56253       -2.80338        0.84493
H          4.31729       -2.11799       -1.08194
C          1.46324       -2.58345        2.27741
H          1.50009       -3.05413        0.16316
H          3.96175       -2.78802        1.86798
H          3.70703       -3.83502        0.49137
H          0.41825       -2.27213        2.28953
H          1.51405       -3.61147        2.64360
H          1.99760       -1.94885        2.98725
H          5.23271        0.57680       -1.20766
H          3.74793        0.10540       -2.02131
H          3.76622        1.51741       -0.96782
Fe         0.69310        2.35881        1.11232
C          1.04986        4.29975        0.55334
C         -0.28126        3.87671        0.15411
C         -0.14944        2.73224       -0.72974
C          1.26100        2.43205       -0.86550
C          1.99983        3.38244       -0.05314
H          1.29188        5.14747        1.19849
H         -1.21462        4.37989        0.41701
H         -0.95750        2.20712       -1.24298
H          1.67397        1.65225       -1.50834
H          3.08664        3.44558        0.03850
