105
-153.06803113
Cl        -1.01103        2.12798       -2.86851
Pd         0.03816        1.58196       -0.95415
P          1.36329        0.75613        0.78985
N          0.52338       -0.40102        1.80839
C         -0.00125       -1.66990        1.61168
C         -0.10368       -2.30095        0.34763
C         -0.77137       -3.53886        0.24304
C         -0.89460       -4.18333       -1.11681
C         -1.95016       -5.29737       -1.18840
C         -1.82207       -6.24746        0.00589
C         -2.00087       -5.48939        1.33049
C         -1.28123       -4.16442        1.38278
C         -1.13023       -3.54758        2.61735
C         -0.50993       -2.33073        2.72966
H         -0.43166       -1.85453        3.69160
H         -1.53020       -4.02979        3.49331
H         -3.06739       -5.31243        1.51304
H         -2.54426       -7.07236       -0.07371
H         -2.95172       -4.84926       -1.18908
H         -1.12447       -3.40611       -1.85590
C          0.62922       -1.80123       -0.84122
C         -0.06795       -1.15699       -1.89977
C          0.61957       -0.90176       -3.09002
C          1.93293       -1.26480       -3.23948
C          2.61687       -1.92666       -2.22714
C          4.03262       -2.37311       -2.47941
C          4.41758       -3.60566       -1.64917
C          4.10249       -3.37044       -0.16892
C          2.61526       -3.04250        0.05382
C          1.96446       -2.20506       -1.02507
H          2.04993       -3.97748        0.14546
H          4.71703       -2.54099        0.19680
H          5.47787       -3.85962       -1.79003
H          4.71071       -1.54322       -2.25096
H          2.44681       -1.04787       -4.16053
H          0.10732       -0.38615       -3.88313
N         -1.40320       -0.75040       -1.78234
P         -1.85745        0.23190       -0.38504
C         -2.81436       -0.74458        0.77395
C         -3.48002       -1.84386        0.28865
C         -4.27119       -2.59803        1.13611
C         -4.39659       -2.25079        2.47439
C         -3.74066       -1.11699        2.93664
C         -2.95390       -0.36144        2.08631
H         -2.44799        0.52156        2.44040
H         -3.84877       -0.83036        3.96873
C         -5.24800       -3.05941        3.38967
H         -4.79183       -3.46315        0.76279
H         -3.36772       -2.10928       -0.75060
C         -2.97979        1.55626       -0.85040
C         -2.89599        2.76785       -0.20531
C         -3.76189        3.78905       -0.55112
C         -4.72431        3.59697       -1.53329
C         -4.79465        2.36389       -2.16790
C         -3.92726        1.34340       -1.82202
H         -3.98622        0.38200       -2.30635
H         -5.53083        2.20892       -2.93801
C         -5.63561        4.70625       -1.92881
H         -3.69174        4.74520       -0.06124
H         -2.15044        2.91327        0.56062
H         -1.77431       -0.25721       -2.58424
H          0.67752       -0.11228        2.76671
C          1.31162        2.30442        1.70201
C          2.37610        3.17368        1.69033
C          2.28404        4.37855        2.36246
C          1.12458        4.72205        3.04454
C          0.05725        3.83331        3.03844
C          0.15278        2.62781        2.36727
H         -0.67371        1.93615        2.35307
H         -0.84945        4.09079        3.55868
C          1.03349        6.02701        3.75657
H          3.11284        5.06575        2.35591
H          3.26905        2.91196        1.14638
C          3.09781        0.28824        0.72997
C          3.89652        0.58666       -0.34770
C          5.24258        0.27655       -0.31966
C          5.80600       -0.32206        0.79837
C          4.98766       -0.61257        1.88179
C          3.63919       -0.30303        1.84738
H          3.00404       -0.51824        2.69165
H          5.41123       -1.08538        2.75129
C          7.24977       -0.68579        0.81366
H          5.86804        0.50692       -1.16523
H          3.46888        1.08784       -1.19820
Cl         1.94484        2.56852       -1.61632
H         -1.66047       -6.10881        2.17018
H         -1.87359       -5.84914       -2.13597
H         -0.83205       -6.72043       -0.01254
H          0.08497       -4.58179       -1.40582
H          4.40232       -4.23968        0.43312
H          2.48201       -2.53316        1.01579
H          4.16474       -2.57552       -3.54993
H          3.85348       -4.47609       -2.00728
H         -4.86269       -3.03374        4.40997
H         -6.27024       -2.67908        3.40538
H         -5.28160       -4.10374        3.07589
H         -6.59540        4.32238       -2.27739
H         -5.83181        5.37361       -1.08845
H         -5.19722        5.29803       -2.73346
H          0.07997        6.13220        4.27585
H          1.82853        6.12171        4.49757
H          1.12505        6.85807        3.05582
H          7.41091       -1.65152        0.33243
H          7.84719        0.05782        0.28434
H          7.63024       -0.75062        1.83396
