72
-98.09913948
Fe        -0.00733        2.82681       -0.00325
P          1.87349       -0.02200       -0.00935
P         -1.77906       -0.07161        0.01439
C          1.41491        1.60515        0.69905
C          0.39712        1.83603        1.70991
C          0.34303        3.25989        1.98935
C          1.31367        3.91001        1.12696
C          2.01222        2.88818        0.36465
C         -1.40379        1.57829       -0.69077
C         -2.00277        2.84881       -0.31010
C         -1.38607        3.90240       -1.09914
C         -0.39530        3.28767       -1.96331
C         -0.40760        1.85717       -1.70880
C          3.29698       -0.66257        0.99893
C          4.45526        0.18043        0.44016
C          2.83916        0.24297       -1.57845
C          4.29084        0.45451       -1.08238
C         -3.00471       -0.86438       -1.12775
C         -4.29831       -0.12374       -0.75535
C         -2.95464        0.17090        1.43878
C         -4.34377        0.24080        0.75765
H         -0.20565        1.06434        2.18805
H         -0.32099        3.75243        2.70317
H          1.52693        4.98121        1.10106
H          2.81361        3.05301       -0.35823
H         -2.79705        2.98290        0.42731
H          0.19735        1.10775       -2.21842
Cl         1.71125       -3.06653       -0.04121
Cl        -1.52940       -3.09098        0.33352
Pd         0.07116       -1.52924        0.07884
H          3.44143       -1.71652        0.73568
C          3.09634       -0.51909        2.50614
H          2.44833        1.15035       -2.05360
C          2.72749       -0.94533       -2.53320
H          5.42136       -0.30285        0.65404
H          4.47946        1.13401        0.98775
H          4.63892        1.46838       -1.32945
H          4.95439       -0.21736       -1.64428
H         -1.63078        4.96605       -1.05532
H          0.23657        3.80538       -2.68874
H          4.07720       -0.53414        3.00144
H          3.51833       -0.86864       -3.29258
H         -3.08403       -1.92202       -0.85296
C         -2.59167       -0.72918       -2.58724
H         -2.69205        1.12723        1.90681
C         -2.87871       -0.95033        2.47238
H         -5.17988       -0.71657       -1.04433
H         -4.35381        0.79416       -1.35847
H         -4.79119        1.23588        0.89805
H         -5.02255       -0.45037        1.27633
H         -2.49192        0.33645       -2.83178
H         -2.98606       -1.91099        1.95242
C          2.21049       -1.60437        3.09473
H          2.65980       -2.59136        2.96939
H          2.02876       -1.45669        4.16165
H          1.24408       -1.63596        2.59532
C          1.37958       -1.07068       -3.22232
H          1.16133       -0.19235       -3.83257
H          1.33566       -1.94271       -3.87882
H          0.57480       -1.17354       -2.49664
C         -3.56182       -1.40266       -3.54576
H         -3.24003       -1.31146       -4.58569
H         -3.65810       -2.46708       -3.32355
H         -4.55969       -0.96675       -3.47250
C         -1.60799       -0.93745        3.30202
H         -1.57712       -1.76109        4.01898
H         -0.72986       -1.02783        2.66609
H         -1.50968       -0.00757        3.86540
H          2.68343        0.47585        2.71648
H          2.95480       -1.86180       -1.97289
H         -1.58652       -1.15052       -2.71464
H         -3.75085       -0.88400        3.13780
