58
-89.86757234
P          1.64324        0.34042        0.88619
C          3.04918        1.42693        0.63966
C          2.90647        2.77704        0.86311
C          3.98288        3.62319        0.66320
C          5.19309        3.10937        0.24033
C          5.33013        1.75363        0.01572
C          4.25216        0.91034        0.21585
H          4.34106       -0.14920        0.03794
H          1.95193        3.16457        1.18302
C          1.99622       -1.31899        0.28875
C          2.02548       -1.51561       -1.07333
C          2.26739       -2.77625       -1.58611
C          2.48399       -3.83440       -0.72634
C          2.46972       -3.63127        0.63962
C          2.22969       -2.36781        1.14871
H          2.23903       -2.19735        2.21255
H          1.85885       -0.67353       -1.72648
C          1.18448        0.38477        2.66562
C          0.02304       -0.51824        3.05203
C         -1.34368       -0.00965        2.61953
P         -1.70076       -0.19959        0.82751
C         -3.35820        0.40578        0.50698
C         -4.33215       -0.45728        0.05968
C         -5.60531        0.01770       -0.19875
C         -5.89166        1.35530       -0.00863
C         -4.90986        2.21782        0.43809
C         -3.63738        1.73968        0.69652
H         -2.85711        2.40273        1.03604
H         -4.09060       -1.49707       -0.09111
C         -1.50087       -1.88979        0.24631
C         -1.44771       -2.95505        1.11612
C         -1.26256       -4.23412        0.62331
C         -1.14148       -4.43936       -0.73700
C         -1.21414       -3.37055       -1.60769
C         -1.39712       -2.09367       -1.11098
H         -1.46301       -1.24507       -1.77343
H         -1.56391       -2.78960        2.17450
Pd        -0.14309        0.90725       -0.47678
Cl         1.42025        1.74252       -1.86462
Cl        -1.79824        1.16012       -1.98005
H         -2.14672       -0.54241        3.13500
H         -1.45925        1.04697        2.86738
H          0.18673       -1.52029        2.63867
H          0.02450       -0.65446        4.14482
H          2.09420        0.11364        3.20719
H          0.96650        1.42335        2.92073
H          3.87450        4.68180        0.83297
H          6.27307        1.35305       -0.31844
H          2.28192       -2.93132       -2.65233
H          2.64541       -4.45682        1.30962
H         -6.37012       -0.65454       -0.55148
H         -5.13185        3.26260        0.58090
H         -1.21232       -5.07001        1.30161
H         -1.12396       -3.52847       -2.66976
H          6.03124        3.76823        0.08185
H          2.66729       -4.82003       -1.12203
H         -6.88234        1.72759       -0.21276
H         -0.99266       -5.43582       -1.11984
