171
-217.84131231
P         -1.71703        0.60698        0.10418
P          1.51335       -0.16445       -0.09432
C         -0.84168        1.87708       -0.83642
C          0.86972       -0.67726       -1.69703
C         -0.03961        1.61993       -1.94208
C          0.66980        2.68687       -2.52541
C          0.53322        3.96120       -2.00118
C         -0.26850        4.19768       -0.90551
C         -0.94803        3.14710       -0.32000
C          1.11499       -1.94292       -2.16920
C          0.61560       -2.33560       -3.39510
C         -0.13652       -1.45245       -4.14172
C         -0.40223       -0.17254       -3.68207
C          0.13481        0.23344       -2.44523
Cl         1.70762        0.79054        3.06192
Cl        -1.39095        0.19669        3.39129
C         -1.22770        0.75613       -4.50219
C          1.58573        2.47701       -3.68029
H         -0.35718        5.19263       -0.50086
H         -1.56031        3.31158        0.55457
H          1.70546       -2.62388       -1.58109
H          0.80957       -3.32941       -3.76431
H          1.07726        4.77217       -2.45545
H         -0.51885       -1.75261       -5.10236
C         -2.59938       -3.45160       -1.71416
C         -1.72043       -3.39413       -0.63892
C         -1.42398       -2.14418       -0.11073
C         -1.99475       -1.00876       -0.63797
C         -2.87799       -1.08890       -1.68648
C         -3.20120       -2.31875       -2.24648
H         -2.84204       -4.40494       -2.14414
H         -0.75207       -2.06015        0.72474
H         -3.32548       -0.18188       -2.05371
C         -5.82733        2.29160        1.01074
C         -5.27169        2.48245       -0.24904
C         -4.00708        1.95912       -0.48474
C         -3.33265        1.28464        0.50340
C         -3.89524        1.11055        1.74163
C         -5.15992        1.61011        2.02126
H         -6.80399        2.68565        1.22004
H         -3.53637        2.08809       -1.44555
H         -3.32339        0.60050        2.49422
C          3.77890       -3.68591        1.70985
C          2.69645       -3.17971        2.41687
C          1.99694       -2.11578        1.86397
C          2.38233       -1.56096        0.66608
C          3.47258       -2.06333       -0.00165
C          4.18528       -3.14501        0.49710
H          4.31743       -4.51752        2.12376
H          1.15044       -1.71063        2.38476
H          3.77075       -1.61476       -0.93278
C          4.50339        3.16563       -0.80001
C          3.57561        3.31121        0.22339
C          2.68089        2.27224        0.44037
C          2.70286        1.15366       -0.35346
C          3.60804        1.03957       -1.38046
C          4.53897        2.04398       -1.61884
H          5.22747        3.94409       -0.95442
H          1.96457        2.32398        1.23979
H          3.56777        0.16923       -2.01158
Pd         0.01065        0.36105        1.64917
C          0.39838       -4.64788       -0.12655
C         -1.13308       -4.65787        0.00936
C         -1.66862       -5.94242       -0.65238
C         -1.52286       -4.68259        1.49908
H          0.69134       -4.65090       -1.17577
H          0.82640       -3.76495        0.34284
H          0.84030       -5.52453        0.34640
H         -1.39292       -5.98579       -1.70590
H         -1.25508       -6.82708       -0.16821
H         -2.75414       -6.00070       -0.57439
H         -1.15477       -5.58557        1.98529
H         -1.11190       -3.82496        2.02903
H         -2.60636       -4.65680        1.61310
C         -4.84806       -1.09916       -3.75495
C         -4.22302       -2.45808       -3.38447
C         -5.35632       -3.40145       -2.93798
C         -3.52824       -3.03680       -4.62898
H         -4.09026       -0.39694       -4.09983
H         -5.57896       -1.21374       -4.55528
H         -5.36095       -0.66169       -2.89883
H         -5.83785       -3.02348       -2.03626
H         -6.11651       -3.49186       -3.71373
H         -4.98118       -4.40129       -2.72351
H         -4.23655       -3.16424       -5.44743
H         -2.73708       -2.37164       -4.97090
H         -3.08202       -4.00790       -4.41754
C         -5.13637        4.47391       -1.76283
C         -5.98675        3.25170       -1.36875
C         -7.37747        3.74449       -0.92512
C         -6.16235        2.32883       -2.58897
H         -4.98285        5.12842       -0.90506
H         -4.15662        4.17222       -2.13178
H         -5.62430        5.05268       -2.54686
H         -8.01916        2.90868       -0.64676
H         -7.30112        4.42138       -0.07439
H         -7.87166        4.28493       -1.73242
H         -5.19964        1.99820       -2.97701
H         -6.73941        1.44388       -2.32160
H         -6.68636        2.84257       -3.39474
C         -7.14570        0.67227        3.23313
C         -5.82027        1.43865        3.39691
C         -6.09275        2.82603        4.00625
C         -4.91779        0.64931        4.36608
H         -7.84273        1.21655        2.59707
H         -6.97185       -0.30383        2.78057
H         -7.62779        0.51609        4.19803
H         -6.77003        3.40725        3.38161
H         -6.54440        2.73642        4.99406
H         -5.16542        3.38935        4.10872
H         -3.97169        1.16468        4.52994
H         -5.40074        0.53143        5.33592
H         -4.70480       -0.34735        3.98020
C          3.52621       -3.67747        4.72971
C          2.31960       -3.78206        3.77831
C          1.93130       -5.25941        3.59238
C          1.13311       -3.03713        4.42311
H          3.83123       -2.63798        4.84882
H          3.28121       -4.07265        5.71540
H          4.38108       -4.23601        4.35063
H          2.75810       -5.83722        3.18086
H          1.64809       -5.71119        4.54286
H          1.08725       -5.35225        2.91057
H          1.36794       -1.98392        4.57632
H          0.24029       -3.10339        3.80306
H          0.88954       -3.46538        5.39514
C          4.88805       -4.13186       -1.69616
C          5.37626       -3.68866       -0.30382
C          6.02861       -4.89762        0.39334
C          6.43376       -2.57909       -0.45415
H          4.11413       -4.89422       -1.60777
H          4.47026       -3.29531       -2.25523
H          5.70705       -4.54763       -2.28276
H          6.40872       -4.62486        1.37765
H          5.31594       -5.71380        0.51087
H          6.86806       -5.27418       -0.19107
H          7.30041       -2.93768       -1.00920
H          6.03078       -1.71796       -0.98555
H          6.77507       -2.23789        0.52296
C          3.37737        5.81071        0.17429
C          3.56862        4.58240        1.08306
C          4.90698        4.69246        1.83488
C          2.42496        4.56109        2.11704
H          4.18833        5.90130       -0.54727
H          2.44266        5.73601       -0.38061
H          3.34898        6.72901        0.76051
H          4.92679        5.57849        2.46916
H          5.06410        3.81960        2.46829
H          5.74526        4.75840        1.14224
H          2.53502        3.72542        2.80779
H          2.41968        5.47706        2.70746
H          1.45510        4.47816        1.62693
C          5.35629        0.70394       -3.62190
C          5.62711        1.90521       -2.69397
C          6.98314        1.69504       -1.99728
C          5.68555        3.17821       -3.56054
H          4.38329        0.79376       -4.10443
H          6.11107        0.64307       -4.40580
H          5.38283       -0.23562       -3.07072
H          7.22941        2.54169       -1.35709
H          6.96172        0.80105       -1.37433
H          7.78459        1.58019       -2.72685
H          5.93987        4.05568       -2.96788
H          6.43935        3.08042       -4.34167
H          4.72744        3.36473       -4.04360
H         -0.60678        1.31381       -5.20426
H          2.54342        2.96644       -3.50171
H         -1.75567        1.47411       -3.87248
H         -1.97541        0.21145       -5.08026
H          1.16245        2.89325       -4.59551
H          1.78505        1.41821       -3.84918
