87
-129.18417114
P         -1.77329       -0.32697        0.06312
P          1.55811        0.28556       -0.21388
C         -1.44884        1.02287       -1.09649
C          1.17744       -0.69463       -1.67332
C         -0.61408        0.93989       -2.20730
C         -0.41826        2.09181       -2.99360
C         -1.05036        3.27159       -2.63992
C         -1.85797        3.33959       -1.52588
C         -2.05280        2.20993       -0.75502
C          1.92958       -1.81098       -1.94519
C          1.64848       -2.57744       -3.05933
C          0.60571       -2.22165       -3.88999
C         -0.16789       -1.10187       -3.63027
C          0.13419       -0.30860       -2.50635
Cl         1.41183        1.43956        2.82454
Cl        -1.35922       -0.12121        3.25970
H         -2.33345        4.26804       -1.25534
H         -2.67501        2.25050        0.12679
H          2.73409       -2.08430       -1.28224
H          2.23481       -3.45627       -3.27182
H         -0.89413        4.14869       -3.24484
H          0.37568       -2.82475       -4.75186
C         -0.66975       -4.54995       -1.23393
C         -0.03803       -3.98714       -0.13356
C         -0.40256       -2.70428        0.25216
C         -1.35503       -2.00094       -0.44938
C         -1.99325       -2.57662       -1.52266
C         -1.64858       -3.85590       -1.91802
H         -0.38785       -5.53914       -1.55196
C          1.03902       -4.71013        0.59592
H          0.05814       -2.26124        1.11553
H         -2.74723       -2.01957       -2.05436
H         -2.13570       -4.30568       -2.76757
C         -6.25066       -0.28210        0.90072
C         -5.77802       -0.15318       -0.39036
C         -4.41627       -0.16250       -0.63067
C         -3.53852       -0.29552        0.42084
C         -4.01002       -0.42147        1.70551
C         -5.37365       -0.42486        1.96668
H         -7.31026       -0.26912        1.09167
H         -6.46875       -0.04332       -1.21027
H         -4.03256       -0.05476       -1.63316
H         -3.31017       -0.50046        2.51754
C         -5.87736       -0.53131        3.36321
C          5.10152       -1.74873        1.82228
C          5.29897       -0.88156        0.76671
C          4.21631       -0.25803        0.17512
C          2.94410       -0.50389        0.63827
C          2.74919       -1.36760        1.69228
C          3.82503       -1.99627        2.30577
H          5.94162       -2.24018        2.28278
H          6.29531       -0.69158        0.40246
H          4.35913        0.41946       -0.65081
H          1.75768       -1.55004        2.06472
C          3.60397       -2.94392        3.43194
C          2.77381        4.46607       -1.53278
C          3.12805        3.36889       -2.29270
C          2.76685        2.09937       -1.88110
C          2.06458        1.93689       -0.70941
C          1.72827        3.02735        0.05766
C          2.06300        4.31182       -0.35073
H          3.05228        5.45599       -1.85181
H          3.67908        3.50144       -3.20934
H          3.01508        1.23452       -2.47601
H          1.22128        2.88118        0.99510
C          1.70299        5.48648        0.48870
Pd        -0.04251        0.34844        1.50882
C          0.45104        2.07350       -4.20327
C         -1.30311       -0.76823       -4.53377
H          1.11851        1.21141       -4.20512
H         -0.15036        2.03585       -5.11238
H          1.07163        2.96935       -4.24995
H         -0.94099       -0.38920       -5.49025
H         -1.91379       -1.65037       -4.73165
H         -1.95344       -0.01078       -4.09462
H          0.99879       -5.78289        0.40260
H          2.02210       -4.34900        0.29005
H          0.94781       -4.56258        1.67304
H         -5.18351       -1.09438        3.98911
H         -6.00196        0.45784        3.80593
H         -6.84167       -1.04033        3.39654
H          3.49501       -3.96504        3.06379
H          4.44026       -2.92464        4.13211
H          2.70097       -2.68830        3.98834
H          2.46274        5.66462        1.25090
H          1.61121        6.39044       -0.11506
H          0.74948        5.32774        0.99469
