87
-129.18551721
P         -1.52276       -0.26832       -0.37164
P          1.67681        0.36007        0.09082
C         -1.17909        0.98176       -1.61544
C          1.53700       -0.71030       -1.36330
C         -0.12538        0.78883       -2.49949
C          0.14251        1.78127       -3.46386
C         -0.66140        2.90827       -3.51264
C         -1.70719        3.07631       -2.62958
C         -1.96272        2.10774       -1.67928
C          2.26442       -1.87613       -1.31210
C          2.15863       -2.81695       -2.31719
C          1.30135       -2.59238       -3.37131
C          0.54981       -1.43257       -3.44325
C          0.67994       -0.45916       -2.43342
Cl         1.19166        0.01905        3.25860
Cl        -1.56905       -1.63638        2.57116
H         -2.31980        3.96165       -2.67713
H         -2.78074        2.22846       -0.98899
H          2.91795       -2.05728       -0.47501
H          2.73287       -3.72767       -2.26908
H         -0.45430        3.66447       -4.25074
H          1.20006       -3.32971       -4.14960
C         -2.25022       -4.27320       -2.38477
C         -1.35468       -4.20078       -1.32652
C         -1.15607       -2.97187       -0.70933
C         -1.83730       -1.85727       -1.13950
C         -2.72914       -1.93787       -2.18299
C         -2.93905       -3.15327       -2.80778
H         -2.40150       -5.21773       -2.87897
C         -0.58127       -5.39554       -0.89270
H         -0.45616       -2.88873        0.10491
H         -3.24336       -1.04830       -2.51184
H         -3.63216       -3.22334       -3.63001
C         -5.10849        1.03579        2.12345
C         -5.18075       -0.12179        1.37391
C         -4.09814       -0.51912        0.61231
C         -2.95509        0.24493        0.60090
C         -2.88013        1.39604        1.35065
C         -3.95463        1.80730        2.12872
H         -5.95143        1.34792        2.71613
H         -6.07864       -0.71769        1.38532
H         -4.13683       -1.42666        0.03266
H         -1.98029        1.98621        1.33097
C         -3.86916        3.06312        2.92272
C          5.68450       -0.34140        2.14023
C          5.48608        0.79281        1.37818
C          4.26753        1.00423        0.76083
C          3.25636        0.08380        0.91135
C          3.45362       -1.04770        1.66904
C          4.67380       -1.28047        2.29174
H          6.62938       -0.50374        2.63030
H          6.27835        1.51499        1.26764
H          4.09786        1.88779        0.16761
H          2.64615       -1.74913        1.80043
C          4.86633       -2.48588        3.14290
C          0.93425        4.79436       -0.57231
C          1.78873        4.11377       -1.41763
C          2.03157        2.76784       -1.21625
C          1.41563        2.11654       -0.17398
C          0.59283        2.80007        0.69172
C          0.33242        4.15123        0.50058
H          0.72955        5.83820       -0.73878
H          2.25507        4.62709       -2.24248
H          2.68073        2.21613       -1.87739
H          0.17301        2.28767        1.54024
C         -0.60576        4.87559        1.40017
Pd        -0.06239       -0.41165        1.45242
C          1.27308        1.64993       -4.42424
C         -0.38858       -1.25034       -4.58587
H          0.90653        1.43965       -5.42974
H          1.85592        2.57119       -4.46632
H          1.95099        0.84538       -4.13711
H         -1.12095       -0.46859       -4.38200
H          0.15144       -0.98017       -5.49406
H         -0.94023       -2.17022       -4.78497
H          0.37025       -5.45321       -1.42325
H         -0.36837       -5.35735        0.17663
H         -1.13350       -6.31574       -1.08835
H         -4.02673        3.93543        2.28682
H         -4.61932        3.08336        3.71441
H         -2.88947        3.16060        3.39287
H          4.33440       -3.34491        2.73134
H          5.92125       -2.75343        3.21784
H          4.49013       -2.30944        4.15154
H         -0.33553        5.92896        1.48590
H         -1.62657        4.81898        1.01937
H         -0.59638        4.44824        2.40389
