111
-148.55790983
P         -2.51675       -1.75829       -1.19315
P          0.26611       -0.47737       -0.42585
C         -1.28398       -1.45382       -2.48704
C         -0.04965       -0.94901       -2.13880
C         -3.48198       -3.30477       -1.51050
C         -3.01423       -4.44348       -0.63069
C         -1.57120       -1.71879       -3.81085
H         -2.54417       -2.09549       -4.08041
C         -0.61443       -1.48402       -4.78331
H         -0.83763       -1.69067       -5.81730
C          0.62432       -0.98333       -4.43111
H          1.36808       -0.79799       -5.18852
C          0.90567       -0.71015       -3.10476
H          1.86130       -0.30256       -2.81580
Pd        -1.37734       -1.56280        0.80261
Cl        -3.22640       -2.28162        1.84963
Cl        -0.15144       -1.28686        2.66231
C         -4.93338       -2.85282       -1.26481
C         -3.88820       -0.51542       -1.14080
H         -3.13139       -4.19253        0.42435
H         -3.58807       -5.35410       -0.81771
H         -1.95798       -4.66677       -0.79884
H         -5.18978       -3.04851       -0.21440
H         -5.63145       -3.46254       -1.85855
H         -3.97909       -0.20953       -0.08981
C         -5.11866       -1.33823       -1.56834
C         -3.59298        0.67767       -2.02369
H         -3.33543       -3.55253       -2.56940
H         -5.27960       -1.19876       -2.64619
H         -6.02632       -0.94920       -1.08243
H         -4.41656        1.39538       -2.01495
H         -2.69045        1.19708       -1.69693
H         -3.43471        0.36514       -3.05746
C         -1.32636        3.75064        0.12554
C         -0.78341        3.36480       -1.12733
C         -0.30872        2.07133       -1.26544
C         -0.28341        1.21238       -0.19870
C         -0.68529        1.62424        1.04379
C         -1.18603        2.89712        1.24948
O         -2.05059        4.96649        0.24366
C         -0.73935        4.30594       -2.34067
H          0.02801        1.70873       -2.22080
H         -0.62001        0.91791        1.85283
C         -1.62201        3.30474        2.66451
C          4.63440       -0.77640        0.82017
C          4.18832        0.32628        0.04387
C          2.84697        0.38614       -0.29636
C          1.98768       -0.63136        0.02756
C          2.44064       -1.75793        0.66174
C          3.76733       -1.87947        1.04195
O          5.91088       -0.73950        1.43787
C          5.10528        1.45572       -0.45569
H          2.45241        1.24629       -0.81113
H          1.73448       -2.54055        0.88207
C          4.21039       -3.20338        1.68731
C          0.48719        3.98873       -3.22669
C         -2.01363        4.11671       -3.17774
C         -0.60575        5.77533       -1.90148
C         -0.75778        2.58902        3.72792
C         -1.44708        4.81775        2.88645
C         -3.08990        2.90257        2.87485
C         -3.43876        4.83853       -0.03839
H          0.59625        4.73155       -4.01657
H          1.40276        3.99146       -2.63561
H          0.39562        3.01808       -3.71175
H         -2.01118        4.77441       -4.04654
H         -2.09257        3.08962       -3.53328
H         -2.90490        4.33411       -2.59366
H         -1.47505        6.10147       -1.33614
H          0.27216        5.90858       -1.27020
H         -0.50730        6.43474       -2.76344
H         -0.94945        1.51730        3.74969
H          0.30310        2.74368        3.53324
H         -0.97490        2.97210        4.72469
H         -2.08869        5.39281        2.22351
H         -1.69777        5.09529        3.90997
H         -0.41682        5.11667        2.69628
H         -3.74103        3.40002        2.15993
H         -3.21660        1.82772        2.74626
H         -3.42706        3.16486        3.87724
H         -4.01837        5.15460        0.82882
H         -3.70317        5.48120       -0.87792
H         -3.68413        3.80390       -0.28164
C          5.88305       -0.13468        2.72018
C          4.81875        2.73843        0.34258
C          6.59641        1.09610       -0.33610
C          4.82382        1.71961       -1.95190
C          3.65767       -4.38793        0.86410
C          5.74093       -3.35709        1.72104
C          3.65277       -3.28235        3.11837
H          5.02017        2.59591        1.40249
H          5.43898        3.56250       -0.00906
H          3.77561        3.03627        0.24011
H          6.80552        0.15251       -0.83887
H          7.22360        1.86673       -0.78369
H          6.89530        0.99262        0.70422
H          5.51272        2.46349       -2.35134
H          4.94309        0.80519       -2.53239
H          3.81418        2.09301       -2.11508
H          2.56995       -4.42553        0.88771
H          3.97068       -4.31176       -0.17683
H          4.02271       -5.33689        1.25617
H          6.02900       -4.34032        2.09232
H          6.16164       -3.23298        0.72382
H          6.19795       -2.61435        2.37047
H          3.92612       -4.22488        3.59190
H          2.56563       -3.20953        3.11705
H          4.03721       -2.47286        3.73567
H          5.21714       -0.68810        3.38013
H          6.88917       -0.13523        3.13999
H          5.52572        0.89074        2.64267
