171
-217.84501803
P         -1.56538        0.31724       -0.40554
P          1.64413       -0.41982       -0.23929
C         -0.79213        1.26648       -1.71892
C          1.02217       -1.40169       -1.61312
C          0.03336        0.64811       -2.65004
C          0.66209        1.43999       -3.62950
C          0.42013        2.80371       -3.65616
C         -0.41781        3.39479       -2.73452
C         -1.01839        2.62043       -1.76134
C          1.26098       -2.75477       -1.59891
C          0.72381       -3.56849       -2.57639
C         -0.06973       -3.01833       -3.56005
C         -0.32005       -1.65690       -3.59729
C          0.25107       -0.82344       -2.61575
Cl         1.44575        0.14498        2.96183
Cl        -1.76487       -0.36093        2.78944
C         -1.20550       -1.11304       -4.66359
C          1.55396        0.82589       -4.65091
H         -0.60536        4.45527       -2.77468
H         -1.67094        3.07334       -1.03237
H          1.87161       -3.18040       -0.81984
H          0.91645       -4.62882       -2.56309
H          0.89539        3.40472       -4.41295
H         -0.51011       -3.65016       -4.31298
C         -3.75820       -3.35006       -1.88740
C         -2.79745       -3.49686       -0.89510
C         -2.13752       -2.35569       -0.45784
C         -2.41472       -1.13482       -1.02009
C         -3.34753       -1.01010       -2.02074
C         -4.04894       -2.12308       -2.47065
H         -4.31016       -4.21619       -2.20249
H         -1.40468       -2.40848        0.32824
H         -3.52500       -0.03533       -2.44227
C         -4.44967        2.98819        1.86717
C         -3.08631        3.13618        2.08758
C         -2.22163        2.32682        1.36168
C         -2.71069        1.37867        0.49667
C         -4.06329        1.22634        0.31700
C         -4.96362        2.03832        0.99418
H         -5.13350        3.63015        2.39075
H         -1.15640        2.41562        1.48350
H         -4.41341        0.46285       -0.35325
C          4.40707       -2.78446        2.48124
C          3.08575       -3.19507        2.34733
C          2.26709       -2.48032        1.48325
C          2.75115       -1.39578        0.79470
C          4.05628       -0.99934        0.94698
C          4.91247       -1.68390        1.79888
H          5.05570       -3.32979        3.13906
H          1.23393       -2.75917        1.36189
H          4.40737       -0.13824        0.40611
C          3.77770        3.45444       -1.19774
C          2.71979        3.46728       -0.29671
C          2.05966        2.27029       -0.05462
C          2.44149        1.11866       -0.69662
C          3.48864        1.12184       -1.58572
C          4.18917        2.29429       -1.84490
H          4.30516        4.36910       -1.38721
H          1.25517        2.22987        0.65976
H          3.77684        0.19726       -2.05752
Pd        -0.07191       -0.15079        1.33078
C         -1.31209       -4.84120        0.66623
C         -2.52052       -4.87893       -0.28885
C         -2.21359       -5.88490       -1.41446
C         -3.75910       -5.34026        0.49843
H         -1.09275       -5.83566        1.05448
H         -0.42356       -4.48078        0.14896
H         -1.50432       -4.19118        1.51938
H         -3.06533       -6.00998       -2.08160
H         -1.36753       -5.54700       -2.01173
H         -1.96742       -6.86446       -1.00498
H         -3.99385       -4.63328        1.29399
H         -4.63147       -5.41541       -0.15000
H         -3.59225       -6.31709        0.95202
C         -4.93799       -3.05492       -4.63821
C         -5.16646       -2.01990       -3.51930
C         -5.21793       -0.61798       -4.15805
C         -6.51653       -2.29758       -2.83401
H         -3.97087       -2.90659       -5.11622
H         -4.96771       -4.07314       -4.25300
H         -5.70692       -2.97160       -5.40613
H         -4.26921       -0.36632       -4.63096
H         -5.99251       -0.57016       -4.92333
H         -5.44564        0.14578       -3.41512
H         -6.53741       -3.29583       -2.39782
H         -6.69748       -1.58053       -2.03405
H         -7.33878       -2.22452       -3.54558
C         -1.09175        3.92794        3.44795
C         -2.57005        4.17865        3.08975
C         -3.38834        4.10565        4.39431
C         -2.70618        5.57812        2.46765
H         -0.44882        4.07088        2.58228
H         -0.75556        4.62019        4.21964
H         -0.94708        2.91414        3.82133
H         -4.43113        4.37346        4.23126
H         -3.35878        3.09837        4.80939
H         -2.98858        4.79000        5.14245
H         -2.13367        5.64601        1.54275
H         -3.74680        5.80074        2.23297
H         -2.34153        6.34655        3.14905
C         -7.04869        3.23639        0.28212
C         -6.48218        1.90616        0.81128
C         -7.12874        1.56643        2.16668
C         -6.83811        0.79106       -0.19152
H         -8.12463        3.16641        0.12307
H         -6.86782        4.05089        0.98254
H         -6.58352        3.50178       -0.66712
H         -8.20690        1.44379        2.06507
H         -6.71896        0.63869        2.56558
H         -6.95022        2.35275        2.89913
H         -6.46830       -0.17547        0.15034
H         -7.91821        0.70744       -0.31103
H         -6.41304        0.99781       -1.17336
C          1.22118       -3.96698        3.84221
C          2.50810       -4.39601        3.10943
C          3.49973       -4.93901        4.15645
C          2.18758       -5.51707        2.10573
H          0.44949       -3.64707        3.14390
H          0.81368       -4.78960        4.42942
H          1.42301       -3.13608        4.51778
H          3.05848       -5.76469        4.71462
H          4.40766       -5.31268        3.68363
H          3.77486       -4.16444        4.87212
H          1.75412       -6.38136        2.60858
H          1.48044       -5.17658        1.35129
H          3.09102       -5.84244        1.59027
C          6.38327        0.29202        2.29345
C          6.36550       -1.21005        1.94667
C          7.10486       -1.44407        0.61808
C          7.10390       -1.97183        3.06423
H          7.40293        0.64419        2.44841
H          5.94509        0.89241        1.49728
H          5.81774        0.48212        3.20540
H          8.13888       -1.10529        0.67988
H          7.10964       -2.50311        0.36089
H          6.62270       -0.90643       -0.19669
H          6.59423       -1.85335        4.02029
H          7.17293       -3.03550        2.83756
H          8.12031       -1.59610        3.18152
C          0.83184        5.05886        0.13689
C          2.29621        4.72612        0.47296
C          3.16637        5.94373        0.10697
C          2.44137        4.46103        1.98370
H          0.17360        4.22194        0.36270
H          0.48615        5.92278        0.70417
H          0.72597        5.28815       -0.92267
H          3.08646        6.17833       -0.95435
H          2.84974        6.82545        0.66408
H          4.21460        5.76286        0.34419
H          2.13499        5.33051        2.56495
H          1.83314        3.61493        2.29989
H          3.47709        4.23398        2.23536
C          4.97571        1.85309       -4.18941
C          5.41334        2.26240       -2.77355
C          6.43148        1.24084       -2.23345
C          6.10503        3.63724       -2.85638
H          4.51348        0.86686       -4.18850
H          4.25693        2.56785       -4.58880
H          5.82865        1.82023       -4.86714
H          7.33041        1.22202       -2.84936
H          6.72548        1.49262       -1.21463
H          6.01419        0.23483       -2.22594
H          6.44415        3.96547       -1.87395
H          6.97773        3.59186       -3.50783
H          5.43184        4.39222       -3.26206
H         -2.14671       -1.66126       -4.69444
H          2.25961        1.55604       -5.04728
H         -0.73651       -1.20086       -5.64462
H         -1.44401       -0.06249       -4.49333
H          0.97696        0.43878       -5.49120
H          2.12762        0.00069       -4.22639
