72
-98.09782504
Fe         0.00670        2.84942       -0.01105
P          1.88217       -0.01789       -0.02202
P         -1.79225       -0.06383        0.03991
C          1.41810        1.59458        0.71553
C          0.39424        1.80184        1.72354
C          0.31669        3.22549        1.99722
C          1.32394        3.89822        1.19715
C          2.00139        2.88928        0.40046
C         -1.41082        1.57027       -0.69615
C         -2.01395        2.84731       -0.34886
C         -1.36125        3.88177       -1.13432
C         -0.38072        3.24680       -1.99607
C         -0.40364        1.82313       -1.70980
C          3.29133       -0.69501        0.98011
C          4.46085        0.15314        0.45228
C          2.86070        0.27459       -1.57759
C          4.30489        0.48596       -1.06042
C         -3.00593       -0.89633       -1.08389
C         -4.30663       -0.15269       -0.74245
C         -2.97593        0.20374        1.45140
C         -4.35603        0.28162        0.75337
H         -0.21733        1.02265        2.17635
H         -0.35707        3.70240        2.71265
H          1.53348        4.97015        1.19261
H          2.81200        3.06658       -0.30938
H         -2.81061        3.00075        0.38172
H          0.20358        1.06001       -2.19485
Cl         1.66926       -3.05931       -0.21278
Cl        -1.48027       -3.08734        0.47575
Pd         0.06605       -1.50050        0.07047
H          3.42652       -1.74349        0.69072
C          3.08117       -0.58741        2.48908
H          2.46950        1.18644       -2.04398
C          2.76999       -0.89937       -2.55216
H          5.42052       -0.34925        0.65040
H          4.49581        1.08577        1.03442
H          4.64011        1.51401       -1.26284
H          4.98299       -0.15238       -1.64382
H         -1.59706        4.94827       -1.10994
H          0.26390        3.74809       -2.72167
H          4.05835       -0.62960        2.99010
H          3.55906       -0.79507       -3.31008
H         -3.07756       -1.94582       -0.77657
C         -2.58118       -0.80150       -2.54318
H         -2.70795        1.16057        1.91547
C         -2.92358       -0.91127        2.49307
H         -5.18226       -0.76708       -1.00300
H         -4.37257        0.73563       -1.38742
H         -4.77492        1.29489        0.84263
H         -5.06015       -0.36394        1.29669
H         -2.48493        0.25720       -2.81771
H         -3.05439       -1.87286        1.98012
C          2.17568       -1.67361        3.04524
H          2.00057       -1.55691        4.11710
H          1.20655       -1.66954        2.55028
H          2.60492       -2.66471        2.88654
C          1.42464       -1.04096       -3.24330
H          1.18580       -0.15538       -3.83503
H          1.40075       -1.89960       -3.91824
H          0.62284       -1.17930       -2.51994
C         -3.53963       -1.50804       -3.48962
H         -3.63155       -2.56619       -3.23764
H         -4.54056       -1.07618       -3.43672
H         -3.20998       -1.44474       -4.52916
C         -1.65105       -0.92395        3.32018
H         -1.64347       -1.73756        4.04911
H         -0.77716       -1.05128        2.68442
H         -1.52388        0.01062        3.86981
H          2.68146        0.40794        2.72199
H          3.01525       -1.82044       -2.00736
H         -1.57243       -1.22064       -2.64970
H         -3.79275       -0.81979        3.15939
