171
-217.84661295
P         -1.59738        0.40896       -0.35090
P          1.62635       -0.31493       -0.26970
C         -0.83286        1.45448       -1.59827
C          0.97685       -1.21375       -1.68168
C          0.01937        0.92254       -2.56020
C          0.67795        1.80170       -3.44130
C          0.43232        3.16167       -3.35134
C         -0.43659        3.66681       -2.40760
C         -1.06026        2.80734       -1.52499
C          1.19717       -2.56669       -1.76378
C          0.67777       -3.29133       -2.81850
C         -0.06960       -2.65126       -3.78457
C         -0.30382       -1.28763       -3.71961
C          0.23775       -0.54692       -2.65145
Cl         1.48517        0.39078        2.94047
Cl        -1.67410       -0.37197        2.82369
C         -1.09711       -0.62512       -4.79118
C          1.64240        1.30345       -4.46032
H         -0.62247        4.72694       -2.35197
H         -1.72665        3.19471       -0.77139
H          1.78171       -3.05812       -1.00318
H          0.85746       -4.35175       -2.88671
H          0.93729        3.82849       -4.02983
H         -0.48047       -3.21311       -4.60639
C         -3.59759       -3.36802       -1.83110
C         -2.72035       -3.44661       -0.75639
C         -2.09453       -2.27784       -0.34508
C         -2.33914       -1.09106       -0.98968
C         -3.21227       -1.02762       -2.04805
C         -3.86589       -2.17315       -2.48802
H         -4.10444       -4.25546       -2.16017
H         -1.42878       -2.28690        0.50095
H         -3.39015       -0.07305       -2.51327
C         -4.72168        2.65925        2.04552
C         -3.38485        2.99555        2.21809
C         -2.44029        2.31524        1.45951
C         -2.82882        1.33598        0.57881
C         -4.15476        1.01479        0.42508
C         -5.13333        1.67656        1.15478
H         -5.46339        3.16633        2.63489
H         -1.39033        2.52465        1.57004
H         -4.41949        0.22867       -0.25889
C          4.24782       -2.93653        2.34807
C          2.89356       -3.23249        2.24929
C          2.11871       -2.44164        1.41098
C          2.67270       -1.38078        0.73825
C          4.00730       -1.08822        0.86946
C          4.82745       -1.87038        1.67186
H          4.87302       -3.54449        2.97425
H          1.06791       -2.64001        1.29107
H          4.40253       -0.23440        0.34944
C          3.97480        3.38268       -1.38432
C          2.91151        3.50795       -0.49932
C          2.19903        2.36051       -0.17471
C          2.53067        1.15558       -0.74174
C          3.57218        1.05084       -1.63083
C          4.32424        2.17087       -1.96667
H          4.56189        4.25326       -1.61145
H          1.38466        2.39377        0.52802
H          3.79782        0.08417       -2.04828
Pd        -0.03546        0.00515        1.33513
C         -0.95725       -5.11807       -0.15716
C         -2.44320       -4.75372       -0.00137
C         -3.29232       -5.91965       -0.54272
C         -2.77856       -4.55941        1.48996
H         -0.71655       -6.02459        0.39776
H         -0.71177       -5.28809       -1.20482
H         -0.31766       -4.31678        0.20856
H         -3.09026       -6.83505        0.01338
H         -4.35686       -5.70502       -0.45038
H         -3.06777       -6.11549       -1.59104
H         -3.82619       -4.28694        1.61560
H         -2.59701       -5.47435        2.05355
H         -2.17523       -3.76967        1.93501
C         -4.49413       -3.13519       -4.72340
C         -4.90541       -2.14473       -3.61788
C         -5.03465       -0.73994       -4.23842
C         -6.27751       -2.55025       -3.04789
H         -3.50694       -2.89314       -5.11423
H         -4.46190       -4.15754       -4.34895
H         -5.20071       -3.10825       -5.55276
H         -5.36121       -0.01160       -3.49642
H         -4.08653       -0.40446       -4.65626
H         -5.76870       -0.73937       -5.04409
H         -6.25257       -3.55868       -2.63645
H         -6.57895       -1.87182       -2.25036
H         -7.04487       -2.52391       -3.82136
C         -3.70987        5.37436        2.95384
C         -2.98969        4.04877        3.26230
C         -1.47130        4.30883        3.25837
C         -3.39454        3.54562        4.65960
H         -3.45484        5.72666        1.95447
H         -4.79200        5.26014        3.00275
H         -3.42502        6.14761        3.66714
H         -1.14394        4.66629        2.28309
H         -1.20519        5.06667        3.99502
H         -0.91568        3.40347        3.50233
H         -4.47077        3.39108        4.72736
H         -2.90614        2.59673        4.88095
H         -3.10957        4.26119        5.43060
C         -6.86017        0.23970       -0.04072
C         -6.62299        1.33005        1.02338
C         -7.40614        2.59009        0.61140
C         -7.14231        0.81268        2.37705
H         -7.92213        0.01227       -0.13230
H         -6.50642        0.56434       -1.01911
H         -6.34755       -0.68514        0.22351
H         -7.31642        3.37584        1.36051
H         -7.03154        2.98370       -0.33336
H         -8.46590        2.36754        0.48799
H         -7.04227        1.56938        3.15433
H         -8.19478        0.53717        2.31224
H         -6.58116       -0.06668        2.69272
C          0.83798       -4.06263        3.46115
C          2.26492       -4.41907        2.99425
C          3.08893       -4.79393        4.24249
C          2.21111       -5.62603        2.04363
H          0.16450       -3.91718        2.61899
H          0.41895       -4.85899        4.07589
H          0.84259       -3.14691        4.05209
H          2.58547       -5.56911        4.82010
H          4.07099       -5.17993        3.97185
H          3.22518       -3.92853        4.89085
H          1.64524       -5.38662        1.14440
H          3.21438       -5.91917        1.73488
H          1.73957       -6.48320        2.52391
C          6.77098       -0.39001        0.96123
C          6.32254       -1.56913        1.84735
C          7.14600       -2.80983        1.45465
C          6.59358       -1.20754        3.31871
H          7.83730       -0.19890        1.08094
H          6.58934       -0.60315       -0.09201
H          6.24157        0.52508        1.22619
H          6.94157       -3.09607        0.42310
H          8.21417       -2.61293        1.54480
H          6.91094       -3.66161        2.09156
H          6.33392       -2.03186        3.98197
H          7.64564       -0.97016        3.47552
H          6.00301       -0.34113        3.61597
C          1.28807        4.81999        0.94922
C          2.58557        4.87312        0.12043
C          2.40287        5.91799       -0.99670
C          3.74289        5.29473        1.04266
H          1.38775        4.13566        1.79146
H          1.04553        5.80333        1.35183
H          0.44803        4.49498        0.33601
H          2.12672        6.88731       -0.58202
H          3.31838        6.05278       -1.57103
H          1.61783        5.61044       -1.68640
H          3.53932        6.25817        1.50968
H          3.89100        4.55970        1.83364
H          4.67655        5.38114        0.48775
C          5.68080        0.69712       -3.53487
C          5.54985        2.09006       -2.88836
C          6.81594        2.36817       -2.05804
C          5.43372        3.13808       -4.01205
H          5.83087       -0.07469       -2.78029
H          4.79059        0.44754       -4.11175
H          6.53460        0.66346       -4.21148
H          6.78330        3.36191       -1.61244
H          6.91408        1.64395       -1.25019
H          7.71085        2.30710       -2.67707
H          4.52987        2.98202       -4.59897
H          5.40215        4.15062       -3.61220
H          6.28625        3.07748       -4.68838
H         -1.89236       -1.27842       -5.14995
H          2.56779        1.87823       -4.42599
H         -0.46532       -0.37351       -5.64393
H         -1.56056        0.29441       -4.43101
H          1.22949        1.39351       -5.46602
H          1.90085        0.25729       -4.29184
