87
-129.18619900
P         -1.52242       -0.26437       -0.37496
P          1.68101        0.36671        0.08537
C         -1.17758        0.98471       -1.61903
C          1.54221       -0.70522       -1.36657
C         -0.12321        0.79131       -2.50238
C          0.14458        1.78308       -3.46744
C         -0.65994        2.90959       -3.51768
C         -1.70624        3.07799       -2.63526
C         -1.96181        2.11015       -1.68421
C          2.26938       -1.87110       -1.31300
C          2.16175       -2.81427       -2.31578
C          1.30332       -2.59155       -3.36944
C          0.55184       -1.43175       -3.44311
C          0.68309       -0.45626       -2.43548
Cl         1.14532       -0.04341        3.29871
Cl        -1.55511       -1.62001        2.59255
H         -2.31930        3.96294       -2.68398
H         -2.78040        2.23076       -0.99452
H          2.92291       -2.05048       -0.47537
H          2.73511       -3.72545       -2.26609
H         -0.45296        3.66512       -4.25651
H          1.20095       -3.33053       -4.14604
C         -2.25822       -4.26906       -2.38580
C         -1.34244       -4.19211       -1.34532
C         -1.15156       -2.96635       -0.71965
C         -1.83741       -1.85245       -1.14439
C         -2.73544       -1.93350       -2.18252
C         -2.95162       -3.14987       -2.80328
H         -2.42323       -5.21683       -2.86923
C         -0.59984       -5.39637       -0.88460
H         -0.45488       -2.88546        0.09758
H         -3.25328       -1.04449       -2.50718
H         -3.65557       -3.22195       -3.61608
C         -5.10131        1.03449        2.13204
C         -5.17375       -0.12392        1.38380
C         -4.09316       -0.51940        0.61842
C         -2.95205        0.24748        0.60172
C         -2.87695        1.39949        1.34999
C         -3.94936        1.80890        2.13191
H         -5.94263        1.34502        2.72782
H         -6.07022       -0.72187        1.39908
H         -4.13195       -1.42768        0.03991
H         -1.97862        1.99174        1.32630
C         -3.86335        3.06536        2.92486
C          5.68455       -0.34032        2.13977
C          5.49289        0.78748        1.36652
C          4.27328        1.00375        0.75291
C          3.25594        0.09195        0.91413
C          3.44652       -1.03332        1.68267
C          4.66194       -1.26205        2.31599
H          6.63423       -0.51219        2.61711
H          6.29251        1.49907        1.24119
H          4.10938        1.88174        0.14980
H          2.63865       -1.73471        1.81139
C          4.86215       -2.48585        3.13886
C          0.92953        4.79955       -0.57528
C          1.78692        4.12177       -1.41999
C          2.03266        2.77622       -1.21953
C          1.41658        2.12251       -0.17891
C          0.59024        2.80305        0.68582
C          0.32711        4.15387        0.49570
H          0.72256        5.84306       -0.74091
H          2.25307        4.63690       -2.24380
H          2.68410        2.22663       -1.88019
H          0.16879        2.28824        1.53209
C         -0.61478        4.87507        1.39400
Pd        -0.05287       -0.41461        1.43891
C          1.27542        1.65107       -4.42740
C         -0.38796       -1.25192       -4.58494
H          1.85560        2.57383       -4.47338
H          1.95565        0.84967       -4.13694
H          0.90938        1.43549       -5.43196
H         -1.11868       -0.46819       -4.38276
H          0.15120       -0.98582       -5.49486
H         -0.94149       -2.17154       -4.77993
H         -1.13019       -5.88963       -0.06893
H         -0.47698       -6.11788       -1.69357
H          0.39533       -5.12869       -0.52611
H         -4.61742        3.08941        3.71271
H         -2.88566        3.15973        3.39977
H         -4.01450        3.93748        2.28715
H          5.67273       -2.35208        3.85651
H          3.95938       -2.72925        3.70109
H          5.10771       -3.34133        2.50804
H         -1.63427        4.81836        1.00971
H         -0.60826        4.44525        2.39672
H         -0.34594        5.92852        1.48318
