111
-148.55440907
P         -2.64810       -2.02262       -0.36351
P          0.09056       -0.44472       -0.47313
C         -1.83287       -1.74571       -1.95994
C         -0.61514       -1.10129       -1.99578
C         -3.47154       -3.67884       -0.29274
C         -2.68855       -4.65203        0.56133
C         -2.42351       -2.16521       -3.13478
H         -3.38462       -2.65170       -3.10418
C         -1.78562       -1.94380       -4.34333
H         -2.24598       -2.27108       -5.26125
C         -0.56228       -1.30185       -4.37529
H         -0.06770       -1.12699       -5.31655
C          0.02314       -0.87456       -3.19700
H          0.96886       -0.35543       -3.20397
Pd        -1.07474       -1.48237        1.23853
Cl        -2.54549       -2.21345        2.76562
Cl         0.59093       -0.91298        2.63340
C         -4.87640       -3.33927        0.23891
C         -4.10221       -0.91722       -0.06491
H         -3.17656       -5.62856        0.60331
H         -1.67647       -4.79406        0.17483
H         -2.59910       -4.28538        1.58477
H         -4.87405       -3.44599        1.33246
H         -5.61317       -4.06999       -0.12808
H         -3.98533       -0.53283        0.95731
C         -5.29503       -1.88890       -0.13713
C         -4.15097        0.21912       -1.06308
H         -3.53316       -4.03952       -1.32735
H         -5.69885       -1.87760       -1.15888
H         -6.11466       -1.53716        0.50776
H         -4.19789       -0.16336       -2.08432
H         -5.02614        0.85347       -0.90448
H         -3.26121        0.84738       -0.98882
C         -1.33760        3.83446        0.14696
C         -0.73203        3.12353        1.21432
C         -0.32992        1.81992        0.98492
C         -0.44126        1.25127       -0.25533
C         -0.92023        1.97109       -1.31784
C         -1.34470        3.27947       -1.15870
O         -1.97145        5.08144        0.39243
C         -0.53844        3.72439        2.61457
H          0.06369        1.21269        1.78138
H         -0.96994        1.48948       -2.27832
C         -1.83161        4.06283       -2.38773
C          4.63400       -0.68415       -0.32256
C          3.99525        0.54858       -0.61121
C          2.61257        0.56821       -0.68326
C          1.87340       -0.55375       -0.41271
C          2.48013       -1.72203       -0.03411
C          3.85968       -1.80898        0.06198
O          6.04418       -0.79936       -0.44753
C          4.77491        1.85071       -0.85258
H          2.08786        1.46997       -0.94819
H          1.85543       -2.56760        0.19734
C          4.49356       -3.11066        0.57752
C          0.71481        3.12488        3.29329
C         -0.32379        5.24690        2.54237
C         -1.76683        3.40043        3.47828
C         -1.10542        3.58047       -3.66416
C         -3.34076        3.84061       -2.56992
C         -1.53064        5.56550       -2.24104
C         -3.34374        4.97058        0.74880
H          0.58011        2.07107        3.53209
H          1.58794        3.22099        2.64850
H          0.93135        3.63907        4.22930
H         -1.20001        5.75311        2.14530
H         -0.12300        5.66168        3.52984
H          0.52057        5.48476        1.89621
H         -1.65441        3.80375        4.48426
H         -2.67324        3.81888        3.04715
H         -1.90601        2.32260        3.56014
H         -1.39418        2.56553       -3.93357
H         -1.35084        4.21821       -4.51308
H         -0.02448        3.60561       -3.52802
H         -3.55933        2.78426       -2.72348
H         -3.89651        4.17012       -1.69534
H         -3.71463        4.39031       -3.43332
H         -0.46760        5.72862       -2.06682
H         -1.81508        6.11193       -3.13992
H         -2.07578        5.99954       -1.40655
H         -3.50013        5.39428        1.74064
H         -3.95172        5.53145        0.03910
H         -3.65420        3.92487        0.74732
C          6.48073       -1.20021       -1.74001
C          6.07007        1.88202       -0.02096
C          5.10232        1.97836       -2.34779
C          3.93501        3.07640       -0.42399
C          4.76119       -4.05177       -0.60638
C          5.80287       -2.82654        1.33616
C          3.54483       -3.82053        1.57058
H          5.84934        1.74705        1.03737
H          6.75389        1.09228       -0.32216
H          6.59034        2.83195       -0.14097
H          5.71197        1.14549       -2.68999
H          4.18925        1.98730       -2.94268
H          5.64693        2.90010       -2.55095
H          3.07468        3.22474       -1.07503
H          3.57571        2.96158        0.59837
H          4.53015        3.98818       -0.46896
H          5.44343       -3.59983       -1.32245
H          5.20098       -4.98959       -0.26793
H          3.83489       -4.28320       -1.13169
H          6.55678       -2.39853        0.68015
H          5.62925       -2.12271        2.14947
H          6.21651       -3.74091        1.76073
H          3.22752       -3.13745        2.35817
H          4.04135       -4.66824        2.04211
H          2.65621       -4.20689        1.07379
H          5.62663       -1.34297       -2.40319
H          7.14034       -0.43843       -2.15525
H          7.04179       -2.13145       -1.66385
