105
-153.06696490
Cl        -0.45779        1.79213       -3.06040
Pd         0.33627        1.22634       -1.03356
P          1.38882        0.52489        0.94279
N          1.25031       -1.06143        1.68663
C          0.22728       -2.00422        1.54621
C         -0.18486       -2.49675        0.28045
C         -1.18906       -3.48440        0.21903
C         -1.59862       -4.02519       -1.13061
C         -2.43235       -5.31482       -1.07742
C         -3.50488       -5.22903        0.01206
C         -2.85998       -5.01301        1.38903
C         -1.76931       -3.97115        1.39356
C         -1.32085       -3.50061        2.62093
C         -0.33920       -2.54834        2.69866
H         -0.00678       -2.19146        3.65781
H         -1.76212       -3.89201        3.52197
H         -3.62272       -4.72947        2.12560
H         -4.18106       -4.39374       -0.20935
H         -2.88719       -5.52711       -2.05530
H         -2.16471       -3.24689       -1.65504
C          0.55287       -2.13683       -0.95569
C         -0.14514       -1.53917       -2.04245
C          0.51894       -1.39112       -3.26352
C          1.82163       -1.78793       -3.41102
C          2.52148       -2.37301       -2.36348
C          3.94239       -2.81177       -2.62389
C          4.50173       -3.79054       -1.58026
C          4.11922       -3.35672       -0.16310
C          2.59268       -3.27771       -0.00748
C          1.88956       -2.55124       -1.12961
H          2.17457       -4.28872        0.06494
H          4.55827       -2.37373        0.04795
H          5.59285       -3.88322       -1.67691
H          4.57870       -1.92095       -2.67424
H          2.31938       -1.64913       -4.35590
H          0.00002       -0.92438       -4.08232
N         -1.44693       -1.03444       -1.91282
P         -1.71908        0.15166       -0.63702
C         -2.54290       -0.46408        0.82052
C         -3.60243       -1.32986        0.70104
C         -4.27564       -1.74408        1.83645
C         -3.89049       -1.28951        3.09117
C         -2.83786       -0.38815        3.18282
C         -2.16801        0.02557        2.04612
H         -1.34934        0.72183        2.10514
H         -2.54270       -0.01532        4.14860
C         -4.61629       -1.73433        4.31240
H         -5.10424       -2.42646        1.75432
H         -3.89608       -1.67532       -0.27744
C         -2.71124        1.54239       -1.19422
C         -2.53069        2.76641       -0.59349
C         -3.28952        3.84845       -1.00045
C         -4.23337        3.70944       -2.00908
C         -4.41522        2.45959       -2.58624
C         -3.65482        1.37824       -2.17931
H         -3.80048        0.40633       -2.62187
H         -5.15672        2.33840       -3.35736
C         -5.06510        4.86963       -2.43285
H         -3.15126        4.80983       -0.53599
H         -1.79498        2.87223        0.18899
H         -1.81328       -0.59497       -2.74725
H          1.69663       -0.97515        2.59077
C          0.85635        1.80329        2.08960
C          0.79187        3.10953        1.66604
C          0.34347        4.09504        2.52426
C         -0.03235        3.78081        3.82294
C          0.04474        2.45826        4.23778
C          0.49358        1.47526        3.37508
H          0.53704        0.44781        3.69508
H         -0.25598        2.20187        5.23931
C         -0.54621        4.83526        4.74030
H          0.28305        5.11653        2.18948
H          1.10625        3.35323        0.66468
C          3.14544        0.73451        0.64796
C          3.71093        0.23071       -0.49700
C          5.06672        0.38566       -0.72075
C          5.86435        1.04386        0.20494
C          5.27675        1.53198        1.36423
C          3.91942        1.37998        1.58271
H          3.45920        1.76360        2.47931
H          5.88841        2.03392        2.09431
C          7.32864        1.18707       -0.02423
H          5.51499       -0.00008       -1.62001
H          3.08529       -0.27476       -1.21380
Cl         2.09240        2.62099       -1.26951
H         -2.43968       -5.95845        1.75225
H         -1.77223       -6.16622       -0.86935
H         -4.13662       -6.12861        0.01064
H         -0.69627       -4.18772       -1.73352
H          4.55335       -4.03732        0.58301
H          2.35001       -2.79335        0.94346
H          3.99342       -3.25998       -3.62454
H          4.10319       -4.79492       -1.77149
H         -3.96204       -1.72189        5.18532
H         -5.46556       -1.08141        4.51811
H         -4.99298       -2.75167        4.19675
H         -5.37330        4.77358       -3.47486
H         -5.96494        4.94547       -1.82090
H         -4.51240        5.80525       -2.33696
H         -0.31883        4.59743        5.78041
H         -0.09744        5.80421        4.51709
H         -1.62838        4.93584        4.64665
H          7.55232        1.28197       -1.08772
H          7.72105        2.07342        0.47616
H          7.86722        0.31847        0.35718
