171
-217.84452083
P         -1.58024        0.38645       -0.34100
P          1.63190       -0.31687       -0.31279
C         -0.85734        1.45264       -1.59302
C          0.99122       -1.19816       -1.73668
C         -0.01554        0.93501       -2.57129
C          0.61461        1.82721       -3.45982
C          0.34452        3.18256       -3.36757
C         -0.51792        3.67190       -2.41016
C         -1.10980        2.80104       -1.51729
C          1.25588       -2.54036       -1.85273
C          0.74190       -3.25803       -2.91493
C         -0.05296       -2.62374       -3.84629
C         -0.33009       -1.27027       -3.74708
C          0.21910       -0.53165       -2.68083
Cl         1.66966        0.48858        2.80294
Cl        -1.52760       -0.15036        2.96827
C         -1.19413       -0.62525       -4.77362
C          1.55567        1.33999       -4.50453
H         -0.72403        4.72824       -2.35270
H         -1.77503        3.17691       -0.75738
H          1.86873       -3.02773       -1.11148
H          0.95745       -4.30951       -3.01217
H          0.82123        3.85817       -4.05769
H         -0.46971       -3.18233       -4.66742
C         -3.64536       -3.32525       -1.88560
C         -2.70205       -3.45943       -0.87378
C         -2.04176       -2.31401       -0.44858
C         -2.33356       -1.09478       -1.00762
C         -3.27138       -0.97746       -2.00397
C         -3.95152       -2.09916       -2.46332
H         -4.17404       -4.19491       -2.22713
H         -1.30202       -2.36607        0.33141
H         -3.47968        0.00091       -2.40301
C         -4.69752        2.57302        2.13318
C         -3.37232        2.98224        2.22170
C         -2.43150        2.31973        1.44267
C         -2.81005        1.28917        0.61810
C         -4.12380        0.89790        0.54747
C         -5.09846        1.53360        1.30277
H         -5.42822        3.07145        2.74189
H         -1.38886        2.58147        1.49685
H         -4.39307        0.07595       -0.09199
C          4.13655       -2.92266        2.44143
C          2.78877       -3.22019        2.27702
C          2.05516       -2.44525        1.38837
C          2.64447       -1.40526        0.71184
C          3.97559       -1.12277        0.89301
C          4.75080       -1.87552        1.76475
H          4.71866       -3.51222        3.12292
H          1.00475       -2.63554        1.24624
H          4.41007       -0.29166        0.36646
C          4.04106        3.34662       -1.41946
C          2.94603        3.49215       -0.57671
C          2.21822        2.35395       -0.25363
C          2.56592        1.13609       -0.78155
C          3.63946        1.01105       -1.62901
C          4.41505        2.11798       -1.95150
H          4.62191        4.21878       -1.65309
H          1.37527        2.40572        0.41351
H          3.88037        0.03972       -2.02827
Pd         0.00737        0.02703        1.34384
C         -0.99389       -5.27695       -0.76976
C         -2.36201       -4.81699       -0.24233
C         -3.41465       -5.88700       -0.59282
C         -2.31219       -4.68259        1.29297
H         -0.69470       -6.22213       -0.31716
H         -1.02624       -5.41443       -1.85028
H         -0.22631       -4.53586       -0.55232
H         -3.19533       -6.82569       -0.08410
H         -4.41128       -5.56787       -0.28813
H         -3.42904       -6.09315       -1.66268
H         -2.11595       -5.64641        1.76238
H         -1.52837       -3.99794        1.61150
H         -3.26038       -4.30710        1.67704
C         -4.77225       -2.98238       -4.67174
C         -5.06639       -2.00818       -3.51515
C         -5.18805       -0.58504       -4.09465
C         -6.40589       -2.38162       -2.85372
H         -4.75131       -4.01544       -4.32737
H         -5.53549       -2.90801       -5.44620
H         -3.80792       -2.76342       -5.12819
H         -5.44971        0.13468       -3.31949
H         -4.25486       -0.26765       -4.55838
H         -5.96664       -0.54316       -4.85619
H         -6.38347       -3.39957       -2.46603
H         -6.62448       -1.71291       -2.02144
H         -7.22680       -2.31284       -3.56726
C         -1.48120        4.44007        3.09837
C         -2.97926        4.09559        3.20265
C         -3.27276        3.62419        4.63823
C         -3.79124        5.36665        2.89219
H         -1.23048        4.77324        2.09200
H         -1.21847        5.24226        3.78776
H         -0.86086        3.57860        3.34518
H         -2.98661        4.38370        5.36551
H         -4.33238        3.41143        4.77507
H         -2.71751        2.71361        4.86287
H         -3.61711        5.69296        1.86697
H         -4.86023        5.19594        3.01260
H         -3.50850        6.18172        3.55821
C         -7.48347        1.85162        2.13471
C         -6.55367        1.05608        1.19904
C         -6.62709       -0.43331        1.58659
C         -7.04240        1.23735       -0.24994
H         -8.51098        1.49777        2.05086
H         -7.18017        1.74039        3.17558
H         -7.47879        2.91218        1.88382
H         -7.65391       -0.79649        1.54836
H         -6.03186       -1.04909        0.91320
H         -6.25142       -0.58604        2.59810
H         -6.43694        0.65805       -0.94576
H         -8.07708        0.91219       -0.35711
H         -6.98380        2.28394       -0.54807
C          1.49781       -5.36225        2.10382
C          2.07835       -4.32174        3.07655
C          0.94083       -3.68760        3.90068
C          3.03922       -5.03963        4.04351
H          2.28654       -5.80700        1.49733
H          0.99127       -6.16292        2.64249
H          0.77622       -4.90513        1.43051
H          1.33423       -2.93174        4.57995
H          0.20608       -3.20357        3.25886
H          0.42119       -4.43953        4.49403
H          2.51546       -5.81357        4.60449
H          3.85449       -5.51975        3.50262
H          3.46441       -4.34136        4.76419
C          6.98823       -1.83467        0.64622
C          6.23429       -1.52505        1.95069
C          6.87358       -2.33512        3.09517
C          6.37040       -0.02656        2.28674
H          8.04510       -1.58385        0.73520
H          6.91043       -2.89295        0.39774
H          6.57638       -1.26669       -0.18618
H          6.34926       -2.16375        4.03517
H          6.85832       -3.40312        2.87914
H          7.91457       -2.04573        3.23876
H          7.41108        0.23820        2.47282
H          6.01189        0.60125        1.47216
H          5.79404        0.22070        3.17797
C          2.40533        5.87538       -1.15600
C          2.59797        4.87229       -0.00326
C          3.74491        5.34189        0.90922
C          1.29904        4.82873        0.82408
H          1.62433        5.53552       -1.83503
H          2.11860        6.85568       -0.77574
H          3.32009        5.99873       -1.73418
H          3.90315        4.63358        1.72231
H          4.67905        5.42910        0.35537
H          3.52255        6.31500        1.34669
H          1.04821        5.81938        1.20299
H          0.46233        4.48363        0.21762
H          1.40219        4.16469        1.68203
C          6.45160        3.26008       -2.97026
C          5.65941        1.94504       -2.83633
C          5.23400        1.48569       -4.24150
C          6.58436        0.88576       -2.20808
H          5.85077        4.03454       -3.44662
H          6.77581        3.62290       -1.99499
H          7.34235        3.11403       -3.58123
H          6.10395        1.31905       -4.87655
H          4.66876        0.55533       -4.19839
H          4.61110        2.24008       -4.72040
H          6.09825       -0.08800       -2.16968
H          7.50125        0.77486       -2.78671
H          6.85858        1.16796       -1.19172
H         -0.64591       -0.47085       -5.70390
H          2.36016        2.05821       -4.66430
H         -1.56493        0.34259       -4.43351
H         -2.05958       -1.24896       -4.99773
H          1.04336        1.19750       -5.45673
H          2.01040        0.39083       -4.21750
