75
-122.81184672
P          1.87902       -0.53872        0.15543
C          1.60351       -1.58751       -1.27534
C          1.89613       -1.13130       -2.54014
C          1.79864       -1.99036       -3.61923
C          1.41487       -3.30201       -3.42102
C          1.12479       -3.75555       -2.14937
C          1.22359       -2.89429       -1.07119
H          1.02133       -3.23756       -0.06853
H          0.82243       -4.77831       -1.99571
H          1.33458       -3.97158       -4.26172
H          2.02055       -1.63545       -4.61215
H          2.20241       -0.10684       -2.67624
C          3.30742       -1.24582        1.00622
C          4.24930       -1.89989        0.24327
C          5.36450       -2.45507        0.84459
C          5.53320       -2.34911        2.21051
C          4.59302       -1.68555        2.97251
C          3.48278       -1.13164        2.36539
H          2.76132       -0.58494        2.94608
H          4.72719       -1.59297        4.03780
H          6.40122       -2.78089        2.68150
H          6.09904       -2.96944        0.24699
H          4.10700       -1.97596       -0.82299
C          2.26493        1.14570       -0.33596
C          3.42018        1.79214        0.03587
C          3.59860        3.13793       -0.25642
C          2.57833        3.82054       -0.91802
C          1.41022        3.18669       -1.28050
C          1.25691        1.81779       -1.00965
O          0.08766        1.12937       -1.37045
C         -1.11940        1.78898       -1.09028
C         -1.27344        3.16157       -1.34120
C         -2.46207        3.77649       -1.01686
C         -3.51075        3.06350       -0.43666
C         -3.33692        1.71091       -0.17816
C         -2.16202        1.07937       -0.51328
P         -1.76952       -0.64283       -0.14079
C         -3.05766       -1.39297        0.87083
C         -2.75041       -2.01541        2.05899
C         -3.75271       -2.60816        2.80459
C         -5.05575       -2.58445        2.34911
C         -5.35743       -1.97605        1.14718
C         -4.35260       -1.38321        0.40421
H         -4.56966       -0.92770       -0.54931
H         -6.37256       -1.96582        0.78571
H         -5.83758       -3.04555        2.93033
H         -3.51573       -3.08706        3.74044
H         -1.72891       -2.03693        2.40229
C         -1.74378       -1.56382       -1.68974
C         -1.39236       -0.94225       -2.86584
C         -1.45978       -1.63324       -4.06108
C         -1.87400       -2.95015       -4.07026
C         -2.21772       -3.57542       -2.88820
C         -2.15466       -2.87768       -1.69546
H         -2.43536       -3.34956       -0.76748
H         -2.53837       -4.60417       -2.89406
H         -1.92254       -3.49264       -5.00027
H         -1.18059       -1.14665       -4.98109
H         -1.04662        0.07711       -2.83997
Pd        -0.07760       -0.00529        1.40839
Cl        -1.74388        0.90490        2.63396
Cl         1.35124        0.97814        2.84848
H         -4.11550        1.16035        0.31828
C         -4.76890        3.75090       -0.04188
H         -4.71400        4.09085        0.99303
H         -5.62618        3.08243       -0.13180
H         -4.95829        4.62008       -0.67303
H         -2.57359        4.82987       -1.20403
S          0.07810        4.05826       -2.06369
H          2.69534        4.86691       -1.13842
C          4.85416        3.83996        0.12150
H          4.17805        1.25252        0.57690
H          4.64498        4.84771        0.48270
H          5.38127        3.30725        0.91406
H          5.52567        3.92041       -0.73423
