87
-129.18623039
P         -1.52998       -0.27051       -0.37538
P          1.69237        0.36427        0.09779
C         -1.17385        0.97712       -1.61796
C          1.54894       -0.71102       -1.35222
C         -0.11536        0.78116       -2.49577
C          0.15718        1.77007       -3.46241
C         -0.64609        2.89719       -3.51889
C         -1.69557        3.06899       -2.64091
C         -1.95629        2.10351       -1.68882
C          2.27514       -1.87733       -1.29371
C          2.16749       -2.82463       -2.29257
C          1.30972       -2.60580       -3.34753
C          0.55891       -1.44594       -3.42621
C          0.68991       -0.46655       -2.42239
Cl         1.16870       -0.04124        3.27198
Cl        -1.60328       -1.56830        2.58942
H         -2.30735        3.95457       -2.69409
H         -2.77756        2.22674       -1.00276
H          2.92853       -2.05359       -0.45527
H          2.74096       -3.73553       -2.23912
H         -0.43555        3.65059       -4.25888
H          1.20779       -3.34765       -4.12145
C         -2.28559       -4.26496       -2.39883
C         -1.38969       -4.20166       -1.34034
C         -1.18220       -2.97575       -0.72000
C         -1.85545       -1.85520       -1.14739
C         -2.74746       -1.92673       -2.19141
C         -2.96614       -3.13901       -2.81926
H         -2.44359       -5.20717       -2.89535
C         -0.62511       -5.40343       -0.91023
H         -0.48130       -2.89969        0.09407
H         -3.25499       -1.03261       -2.51833
H         -3.65949       -3.20201       -3.64185
C         -5.11037        1.05773        2.11327
C         -5.19169       -0.09543        1.35793
C         -4.11061       -0.49969        0.59783
C         -2.96022        0.25332        0.59343
C         -2.87643        1.40039        1.34824
C         -3.94917        1.81811        2.12542
H         -5.95183        1.37490        2.70536
H         -6.09531       -0.68268        1.36396
H         -4.15627       -1.40430        0.01414
H         -1.97087        1.98185        1.33350
C         -3.85357        3.06812        2.92734
C          5.72327       -0.31084        2.10886
C          5.51804        0.80913        1.32777
C          4.28999        1.01572        0.72775
C          3.27786        0.10210        0.91022
C          3.48213       -1.01551        1.68631
C          4.70611       -1.23422        2.30655
H          6.67946       -0.47513        2.57577
H          6.31357        1.52220        1.18591
H          4.11553        1.88755        0.11872
H          2.67832       -1.71835        1.83153
C          4.92089       -2.44936        3.13854
C          0.90002        4.79346       -0.53825
C          1.75282        4.12574       -1.39541
C          2.01070        2.78127       -1.20350
C          1.41067        2.11837       -0.15931
C          0.58949        2.78908        0.71792
C          0.31473        4.13887        0.53681
H          0.68397        5.83626       -0.69678
H          2.20631        4.64797       -2.22183
H          2.65936        2.23969       -1.87340
H          0.18341        2.26768        1.56781
C         -0.61983        4.85103        1.44973
Pd        -0.05123       -0.43380        1.43173
C          1.29122        1.63382       -4.41800
C         -0.37865       -1.26950       -4.57041
H          0.92860        1.41176       -5.42238
H          1.87045        2.55699       -4.46770
H          1.97146        0.83495       -4.12064
H         -0.93374       -2.18889       -4.76205
H         -1.10799       -0.48322       -4.37325
H          0.16261       -1.00886       -5.48066
H         -1.19283       -6.31743       -1.08997
H          0.31668       -5.47770       -1.45585
H         -0.39404       -5.36055        0.15515
H         -4.61194        3.09543        3.71094
H         -2.87782        3.14799        3.40881
H         -3.99111        3.94624        2.29483
H          5.16845       -3.30848        2.51349
H          5.73529       -2.30335        3.84946
H          4.02381       -2.69452        3.70905
H         -1.64032        4.80971        1.06618
H         -0.61516        4.40332        2.44457
H         -0.34208        5.90043        1.55740
