115
-277.94292251
P         -1.95481       -0.56577       -0.04755
P          1.72539        0.55827       -0.21101
C         -1.99439       -2.35346        0.15080
C         -0.83614       -3.06168        0.38778
H          0.07020       -2.54777        0.66122
C         -0.82869       -4.43008        0.21168
H          0.08787       -4.99474        0.28606
C         -1.97601       -5.08563       -0.20346
C         -3.16265       -4.37766       -0.31239
H         -4.04708       -4.88928       -0.65612
C         -3.17426       -3.01028       -0.12649
H         -4.07575       -2.44409       -0.30299
C         -3.45764        0.13421        0.67179
C         -4.10894       -0.48223        1.71562
H         -3.71334       -1.39698        2.12718
C         -5.24924        0.08394        2.24915
H         -5.76457       -0.37488        3.07823
C         -5.74751        1.26361        1.73287
C         -5.08837        1.87546        0.68425
H         -5.48296        2.80015        0.29301
C         -3.94616        1.31238        0.15591
H         -3.43942        1.78876       -0.66662
C         -1.78365       -0.01447       -1.78023
C         -1.29285        1.27724       -1.85645
H         -0.99331        1.77891       -0.95112
C         -1.03074        1.88295       -3.08475
C         -1.48209        1.23825       -4.23038
H         -1.32844        1.70158       -5.19061
C         -1.96529       -0.05311       -4.16346
H         -2.18398       -0.58210       -5.07562
C         -2.01088       -0.74703       -2.95432
C          1.41279        0.09178       -1.94599
C          0.92016       -1.19636       -2.02781
H          0.71042       -1.73371       -1.11893
C          0.54219       -1.75297       -3.24881
C          0.88271       -1.06256       -4.40586
H          0.63762       -1.48768       -5.36473
C          1.37499        0.22526       -4.33285
H          1.50915        0.79084       -5.23939
C          1.53545        0.86967       -3.10621
C         -1.95440       -2.25869       -3.02548
H         -2.64369       -2.60723       -3.80281
H         -2.35755       -2.67746       -2.10733
C         -0.51039       -2.82740       -3.28843
H         -0.25441       -3.60763       -2.56351
H         -0.46937       -3.33417       -4.25909
C          0.01759        2.95853       -3.19227
H         -0.15026        3.71278       -2.41623
H         -0.12348        3.50276       -4.13292
C          1.47842        2.38173       -3.10975
H          2.08373        2.76676       -3.93856
H          1.98110        2.76687       -2.22622
C          2.12820        2.30309       -0.06042
C          1.13893        3.22063        0.22033
C          3.38051        2.71938       -0.46151
C          1.36448        4.55938       -0.02487
C          3.59854        4.05803       -0.72341
C          2.56867        4.97517       -0.56974
C          3.14985       -0.36809        0.39850
C          3.90665       -1.08631       -0.49908
C          3.50462       -0.33706        1.72603
C          5.01514       -1.78409       -0.06387
H          3.63361       -1.09620       -1.54164
C          4.61041       -1.03306        2.16273
H          2.91617        0.23665        2.42295
C          5.36846       -1.76725        1.27065
H          5.62713       -2.34574       -0.75171
H          4.90390       -1.01057        3.20048
Pd        -0.10245        0.17599        1.20225
Cl        -1.49125       -0.49640        2.84804
Cl         1.17683        1.27112        2.70135
H          4.52820        4.38323       -1.16215
H          4.14694        1.98949       -0.67149
H          0.57121        5.28339        0.08085
H          0.17294        2.89093        0.56525
C         -3.14223       -7.26063       -0.78427
C         -1.82444       -6.43587       -0.85729
C         -1.37372       -6.14765       -2.32439
F         -4.07804       -6.68307       -1.55026
F         -2.90051       -8.51286       -1.20237
F         -3.54661       -7.26992        0.49449
F         -0.86149       -7.13731       -0.25443
F         -1.35446       -7.28626       -3.03022
F         -2.21178       -5.25606       -2.87187
F         -0.14939       -5.60842       -2.26652
C         -6.55462        3.16410        3.12925
C         -6.97648        1.89233        2.33864
C         -8.01624        2.20519        1.22241
F         -5.71920        2.77311        4.10357
F         -5.92160        4.00919        2.30262
F         -7.64324        3.74402        3.65690
F         -7.54888        1.04712        3.20030
F         -7.52979        3.15404        0.41035
F         -8.21718        1.07427        0.52938
F         -9.16345        2.61139        1.78755
C          7.75276       -1.46281        1.91484
C          6.60775       -2.49740        1.72186
C          6.31303       -3.30855        3.01810
F          8.85804       -2.09265        2.34074
F          7.97621       -0.88618        0.72419
F          7.36413       -0.53460        2.80154
F          6.99592       -3.36417        0.78229
F          7.36543       -4.09318        3.29681
F          6.07429       -2.46451        4.03153
F          5.22514       -4.05848        2.78629
C          4.01812        6.86210       -1.45387
C          2.57908        6.28713       -1.31497
C          1.90944        5.99404       -2.69606
F          4.56115        6.90151       -0.22809
F          4.74777        6.06478       -2.24629
F          3.94877        8.09952       -1.96904
F          1.83180        7.18898       -0.67397
F          0.63746        5.64703       -2.45831
F          1.96215        7.08626       -3.46998
F          2.53784        4.96276       -3.27723
