58
-89.86728383
P          1.86219       -0.19468        0.57475
C          1.55041        1.57844        0.67384
C          1.51305        2.25746        1.87015
C          1.22148        3.60906        1.88416
C          0.97200        4.27475        0.70051
C          1.02033        3.59384       -0.49893
C          1.31324        2.24291       -0.50848
H          1.34902        1.69157       -1.43543
H          1.71986        1.73881        2.79088
C          3.42257       -0.52682       -0.24503
C          4.30444        0.49907       -0.49740
C          5.50151        0.23431       -1.13790
C          5.80493       -1.05719       -1.52161
C          4.91606       -2.08303       -1.26686
C          3.71972       -1.81529       -0.62517
H          3.00981       -2.60363       -0.42907
H          4.05091        1.50275       -0.19662
C          1.84306       -1.04475        2.21111
C          0.47028       -1.52323        2.65916
C         -0.59277       -0.43185        2.67498
P         -1.40220       -0.25628        1.02941
C         -1.96751        1.41996        0.70869
C         -2.05450        2.35917        1.71117
C         -2.48040        3.64106        1.41365
C         -2.82063        3.97176        0.11657
C         -2.74374        3.02296       -0.88356
C         -2.31852        1.74261       -0.58232
H         -2.25781        0.98274       -1.34566
H         -1.79033        2.09133        2.72090
C         -2.77246       -1.41344        0.94843
C         -2.54141       -2.75184        0.72777
C         -3.60687       -3.63211        0.66800
C         -4.89610       -3.16520        0.83201
C         -5.12317       -1.82139        1.05439
C         -4.05567       -0.94338        1.11270
H         -4.21645        0.10957        1.28116
H         -1.53190       -3.10235        0.58531
Pd         0.02080       -0.66034       -0.75471
Cl         1.37893       -0.71186       -2.54404
Cl        -1.73905       -1.30388       -1.99655
H         -1.39697       -0.65523        3.38082
H         -0.16518        0.52496        2.97372
H          0.13257       -2.33734        2.00331
H          0.55617       -1.97811        3.65852
H          2.54176       -1.88185        2.13714
H          2.27245       -0.35299        2.93728
H          1.18597        4.14207        2.82012
H          0.82361        4.10985       -1.42419
H          6.19348        1.03539       -1.33970
H          5.15026       -3.08984       -1.57131
H         -2.54285        4.38186        2.19379
H         -3.01290        3.27777       -1.89534
H         -3.43006       -4.67986        0.48845
H         -6.12917       -1.45591        1.17944
H          0.73795        5.32675        0.71309
H          6.73581       -1.26447       -2.02382
H         -3.14908        4.97183       -0.11503
H         -5.72671       -3.85035        0.78314
