115
-277.94689647
P         -1.86164       -0.63260       -0.11065
P          1.79091        0.51300       -0.27914
C         -2.01334       -2.41584        0.07499
C         -0.90241       -3.19598        0.31148
H          0.03382       -2.74163        0.58957
C         -0.97923       -4.56087        0.12585
H         -0.09930       -5.18122        0.19851
C         -2.16198       -5.14076       -0.30279
C         -3.30294       -4.36025       -0.40872
H         -4.21524       -4.81284       -0.76235
C         -3.23088       -2.99609       -0.21079
H         -4.09458       -2.37346       -0.38619
C         -3.31747        0.13805        0.63723
C         -3.97662       -0.44834        1.69350
H         -3.61757       -1.38175        2.09630
C         -5.07947        0.16829        2.24911
H         -5.59813       -0.26697        3.08879
C         -5.53393        1.36944        1.74242
C         -4.86907        1.95045        0.68002
H         -5.22928        2.89187        0.29564
C         -3.76407        1.33652        0.12967
H         -3.25552        1.78935       -0.70467
C         -1.70527       -0.09993       -1.85015
C         -1.19526        1.18283       -1.93676
H         -0.87751        1.68054       -1.03601
C         -0.93140        1.77890       -3.16876
C         -1.39145        1.13323       -4.30968
H         -1.23407        1.58925       -5.27277
C         -1.89118       -0.15124       -4.23313
H         -2.11782       -0.68306       -5.14172
C         -1.94568       -0.83660       -3.01909
C          1.48992       -0.00244       -2.00301
C          0.97159       -1.28314       -2.05504
H          0.73011       -1.78629       -1.13409
C          0.59873       -1.86855       -3.26344
C          0.95460       -1.21287       -4.43543
H          0.71053       -1.66018       -5.38440
C          1.46052        0.07089       -4.39247
H          1.60462        0.61113       -5.31285
C          1.62514        0.74502       -3.18197
C         -1.90627       -2.34907       -3.08274
H         -2.56499       -2.69021       -3.88947
H         -2.35733       -2.76310       -2.18482
C         -0.46016       -2.93684       -3.28389
H         -0.22831       -3.68592       -2.51932
H         -0.39837       -3.48803       -4.22905
C          0.12216        2.84741       -3.27903
H         -0.03187        3.58849       -2.48761
H         -0.03066        3.40972       -4.20721
C          1.58041        2.25798       -3.22738
H          2.15654        2.60798       -4.09160
H          2.11930        2.66541       -2.37586
C          2.05116        2.28539       -0.12266
C          1.00392        3.12360        0.19237
C          3.26860        2.79897       -0.51683
C          1.13342        4.48077       -0.01948
C          3.39218        4.15567       -0.74074
C          2.30340        4.99439       -0.55515
C          3.26302       -0.31399        0.36846
C          3.66746       -1.50344       -0.19376
C          3.97735        0.23007        1.41072
C          4.78415       -2.15334        0.29064
H          3.11465       -1.92310       -1.01696
C          5.09351       -0.41849        1.89576
H          3.65466        1.15766        1.85550
C          5.50594       -1.61241        1.33547
H          5.10968       -3.09232       -0.12836
H          5.65241       -0.01180        2.72384
Pd         0.01921       -0.01508        1.17208
Cl        -1.35813       -0.81615        2.76440
Cl         1.45037        0.86283        2.66828
H          4.29363        4.55681       -1.17526
H          4.08233        2.13082       -0.75323
H          0.29362        5.14541        0.11320
H          0.07073        2.72003        0.54825
C         -3.44670       -7.23413       -0.93440
C         -2.08355       -6.48498       -0.98174
C         -1.60424       -6.19359       -2.43940
F         -4.34354       -6.58612       -1.69055
F         -3.27445       -8.48795       -1.38113
F         -3.85835       -7.25036        0.34197
F         -1.16689       -7.25194       -0.38658
F         -1.62861       -7.32053       -3.16342
F         -2.39536       -5.25655       -2.98084
F         -0.35727       -5.71163       -2.35982
C         -6.21379        3.29612        3.16865
C         -6.71717        2.05541        2.37643
C         -7.76084        2.43217        1.28388
F         -5.38177        2.85290        4.12331
F         -5.55244        4.11367        2.33647
F         -7.25996        3.92801        3.72186
F         -7.31605        1.23348        3.24260
F         -7.24299        3.36444        0.47201
F         -8.03159        1.32045        0.58357
F         -8.87523        2.88898        1.87554
C          7.88735       -1.39747        2.11769
C          6.68861       -2.36500        1.89017
C          6.24994       -3.08621        3.19644
F          8.97745       -2.11264        2.43569
F          8.09037       -0.72985        0.97197
F          7.58842       -0.53447        3.09868
F          7.08393       -3.30026        1.02198
F          7.29458       -3.75063        3.71313
F          5.78691       -2.17827        4.06827
F          5.26960       -3.94252        2.87118
C          3.62527        7.00865       -1.34969
C          2.22935        6.32744       -1.25682
C          1.60702        6.03084       -2.65853
F          4.14879        7.03457       -0.11510
F          4.41983        6.29929       -2.16302
F          3.47382        8.25865       -1.81442
F          1.40782        7.15102       -0.60150
F          0.35330        5.60509       -2.45607
F          1.61217        7.14260       -3.40603
F          2.30578        5.05097       -3.24900
