111
-148.55736861
P         -2.35432       -2.47047       -0.05917
P         -0.08366       -0.29868       -0.46576
C         -1.65376       -2.20465       -1.70524
C         -0.70361       -1.22408       -1.88505
C         -2.29352       -4.24913        0.43772
C         -1.26154       -4.45956        1.52446
C         -2.08836       -2.95186       -2.78092
H         -2.82606       -3.72312       -2.62895
C         -1.57666       -2.70263       -4.04281
H         -1.91558       -3.28417       -4.88458
C         -0.63820       -1.70488       -4.22519
H         -0.24374       -1.50667       -5.20819
C         -0.20116       -0.96225       -3.14283
H          0.53091       -0.17962       -3.26847
Pd        -1.36345       -0.94782        1.36443
Cl        -2.88725       -1.52884        2.90337
Cl        -0.35538        0.67402        2.54915
C         -3.74288       -4.54269        0.86904
C         -4.18469       -2.18143       -0.01490
H         -1.22271       -5.50429        1.84211
H         -0.26359       -4.16923        1.18626
H         -1.49821       -3.85515        2.40253
H         -3.82015       -4.40780        1.95671
H         -3.99169       -5.59876        0.68435
H         -4.37148       -1.58132        0.88545
C         -4.75661       -3.60025        0.16070
C         -4.67438       -1.45349       -1.24924
H         -2.03539       -4.81641       -0.46608
H         -5.00547       -4.00711       -0.82898
H         -5.70877       -3.56297        0.71143
H         -5.74507       -1.24432       -1.19174
H         -4.14919       -0.50593       -1.38517
H         -4.50462       -2.04957       -2.14692
C         -0.98530        4.14872       -0.79607
C          0.33023        3.68216       -1.04968
C          0.57892        2.32500       -0.93083
C         -0.43255        1.44429       -0.65164
C         -1.72541        1.87609       -0.51326
C         -2.04179        3.22131       -0.60693
O         -1.23896        5.54328       -0.70288
C          1.48748        4.62393       -1.41885
H          1.57570        1.93536       -1.04261
H         -2.48742        1.14371       -0.30930
C         -3.50763        3.65556       -0.45181
C          4.36620       -1.03826        0.25149
C          3.62511       -0.21519        1.13621
C          2.27126       -0.05409        0.89959
C          1.66612       -0.60446       -0.19911
C          2.40043       -1.32140       -1.10830
C          3.75886       -1.52605       -0.93346
O          5.70274       -1.40050        0.56780
C          4.25600        0.47857        2.35363
H          1.65448        0.49177        1.59047
H          1.89377       -1.73047       -1.96331
C          4.54648       -2.28419       -2.01414
C          2.17490        5.11558       -0.13611
C          2.53606        3.88793       -2.28431
C          0.98407        5.82093       -2.24569
C         -4.46457        2.53857       -0.92691
C         -3.79604        3.94182        1.02997
C         -3.81050        4.89985       -1.30582
C         -1.08129        6.07769        0.60559
H          2.56077        4.27494        0.43931
H          3.00927        5.77672       -0.36889
H          1.48235        5.66038        0.50033
H          3.28807        4.58379       -2.65563
H          3.06292        3.12272       -1.71591
H          2.06489        3.41403       -3.14506
H          0.46118        5.47789       -3.13782
H          0.29612        6.43794       -1.67316
H          1.81194        6.45573       -2.56056
H         -5.49438        2.89441       -0.94854
H         -4.20465        2.20523       -1.93131
H         -4.43947        1.67887       -0.25895
H         -3.16272        4.73974        1.40906
H         -4.83450        4.23785        1.17593
H         -3.60856        3.05561        1.63599
H         -3.56984        4.71449       -2.35210
H         -4.86393        5.17148       -1.24281
H         -3.22979        5.75812       -0.97746
H         -0.32196        6.85934        0.59248
H         -2.01991        6.52365        0.93396
H         -0.78619        5.29328        1.30378
C          5.81466       -2.59162        1.33671
C          5.72350        0.85439        2.07992
C          3.50919        1.79270        2.67838
C          4.16330       -0.45098        3.57296
C          5.99604       -1.77327       -2.10422
C          4.53305       -3.78652       -1.69420
C          3.90831       -2.07169       -3.40622
H          5.79954        1.48047        1.19148
H          6.15068        1.40283        2.91909
H          6.33633       -0.02881        1.91850
H          4.02902        2.35151        3.45617
H          3.44477        2.42806        1.79591
H          2.49957        1.60543        3.04074
H          4.59331        0.01990        4.45655
H          3.12403       -0.69478        3.79228
H          4.69234       -1.38477        3.39844
H          6.54170       -1.96272       -1.18324
H          6.53541       -2.26500       -2.91339
H          6.01359       -0.69953       -2.28803
H          4.99530       -3.98887       -0.73110
H          3.51109       -4.16317       -1.65700
H          5.07403       -4.35203       -2.45249
H          2.93423       -2.55277       -3.48178
H          4.53593       -2.49816       -4.18841
H          3.78500       -1.00990       -3.61827
H          4.82785       -3.01395        1.53037
H          6.42222       -3.31853        0.79790
H          6.30802       -2.37143        2.28322
