75
-122.81816484
P          1.83100       -0.56822       -0.02689
C          1.70424       -1.53789       -1.53766
C          1.81186       -2.90704       -1.44783
C          1.80339       -3.67521       -2.59832
C          1.69154       -3.06505       -3.83189
C          1.58096       -1.69147       -3.91744
C          1.58660       -0.92765       -2.76531
H          1.48864        0.14374       -2.81646
H          1.48437       -1.21497       -4.87909
H          1.68314       -3.66240       -4.72893
H          1.88626       -4.74744       -2.53074
H          1.91663       -3.36756       -0.47805
C          3.15285       -1.32284        0.93500
C          4.43223       -1.29899        0.42787
C          5.46245       -1.89811        1.13004
C          5.20093       -2.52703        2.33095
C          3.91282       -2.56448        2.82656
C          2.88512       -1.96513        2.12187
H          1.87475       -1.99224        2.49677
H          3.70742       -3.05884        3.76181
H          6.00267       -2.99291        2.88036
H          6.46594       -1.87638        0.73788
H          4.61707       -0.82397       -0.52296
C          2.20664        1.15003       -0.41696
C          3.35524        1.80391       -0.03674
C          3.51861        3.15634       -0.30272
C          2.48299        3.84569       -0.93285
C          1.31934        3.20746       -1.30058
C          1.17808        1.83380       -1.04728
O         -0.00185        1.14848       -1.37949
C         -1.19911        1.81500       -1.07352
C         -1.36183        3.18300       -1.34416
C         -2.55064        3.79938       -1.02203
C         -3.58516        3.09827       -0.40340
C         -3.40270        1.75145       -0.12176
C         -2.22702        1.12040       -0.45473
P         -1.83130       -0.57422        0.00644
C         -3.16170       -1.27500        0.99648
C         -4.39958       -1.41068        0.40984
C         -5.44636       -1.95928        1.12888
C         -5.24302       -2.37463        2.42971
C         -3.99697       -2.24649        3.01040
C         -2.95282       -1.69786        2.28903
H         -1.97726       -1.59184        2.73431
H         -3.83759       -2.57127        4.02550
H         -6.05753       -2.80127        2.99206
H         -6.41709       -2.06384        0.67283
H         -4.53890       -1.09345       -0.61204
C         -1.68059       -1.60643       -1.45523
C         -1.60283       -2.97067       -1.29380
C         -1.57201       -3.79261       -2.40618
C         -1.62424       -3.24082       -3.67099
C         -1.70109       -1.87098       -3.82715
C         -1.72959       -1.05208       -2.71355
H         -1.78412        0.01900       -2.81854
H         -1.73434       -1.43958       -4.81402
H         -1.59785       -3.88021       -4.53819
H         -1.50863       -4.86139       -2.28454
H         -1.58030       -3.38613       -0.29846
Pd         0.00627       -0.05007        1.40652
Cl        -1.54371        1.06141        2.61271
Cl         1.64513        0.75905        2.72968
H         -4.17557        1.20197        0.38594
C         -4.86501        3.77452       -0.06177
H         -4.71713        4.84435        0.09073
H         -5.29110        3.36562        0.85535
H         -5.59655        3.64562       -0.86043
H         -2.67256        4.84557       -1.24048
S         -0.01740        4.07720       -2.07913
H          2.58382        4.89938       -1.12432
C          4.74821        3.86796        0.13652
H          4.12006        1.26960        0.49809
H          5.62092        3.21626        0.07707
H          4.94302        4.74107       -0.48752
H          4.65014        4.20615        1.16881
