87
-129.18726177
P         -1.71072       -0.37746       -0.13902
P          1.62998        0.36154       -0.14836
C         -1.43198        0.95361       -1.33084
C          1.36965       -0.65584       -1.60714
C         -0.45321        0.89447       -2.32086
C         -0.23445        2.02730       -3.12851
C         -1.01047        3.15754       -2.93919
C         -1.98243        3.19502       -1.96391
C         -2.18388        2.09157       -1.15874
C          2.15973       -1.76421       -1.79089
C          1.97191       -2.57586       -2.89207
C          0.98686       -2.26881       -3.80649
C          0.17734       -1.15756       -3.63946
C          0.37276       -0.32690       -2.51821
Cl         1.30451        0.95459        2.98287
Cl        -1.43475       -0.81536        2.98872
H         -2.57484        4.08411       -1.82225
H         -2.93371        2.12095       -0.38590
H          2.92918       -1.99520       -1.07312
H          2.59002       -3.44731       -3.03319
H         -0.83972        4.01886       -3.56254
H          0.83401       -2.90094       -4.66472
C         -1.12023       -4.56712       -1.79645
C         -0.46579       -4.19509       -0.63011
C         -0.67810       -2.91577       -0.13235
C         -1.50977       -2.03787       -0.78868
C         -2.16974       -2.42050       -1.93256
C         -1.97481       -3.69233       -2.43872
H         -0.95320       -5.55129       -2.19982
C          0.48414       -5.11772        0.04856
H         -0.19442       -2.61090        0.77941
H         -2.81613       -1.71727       -2.43347
H         -2.47989       -3.99557       -3.34109
C         -5.75990        0.14087        1.88098
C         -5.57626       -0.86668        0.95482
C         -4.34546       -1.02897        0.34709
C         -3.30953       -0.18205        0.66571
C         -3.49093        0.82194        1.58898
C         -4.71793        0.99347        2.21816
H         -6.71818        0.27027        2.35456
H         -6.39078       -1.52722        0.70645
H         -4.18722       -1.81561       -0.37208
H         -2.66702        1.46895        1.84208
C         -4.90814        2.08722        3.20933
C          5.07611       -1.29816        2.32560
C          5.17840       -0.03834        1.76907
C          4.13940        0.46749        1.01088
C          3.00811       -0.28884        0.81483
C          2.90221       -1.54221        1.37263
C          3.93949       -2.07064        2.13055
H          5.88071       -1.69032        2.92401
H          6.06460        0.55324        1.93059
H          4.20091        1.45351        0.58056
H          2.00492       -2.11882        1.22342
C          3.80425       -3.41573        2.75267
C          2.22181        4.72089       -1.26847
C          3.01242        3.74844       -1.84912
C          2.84073        2.42127       -1.50130
C          1.88825        2.08325       -0.56906
C          1.10627        3.04952        0.01960
C          1.25218        4.38548       -0.33340
H          2.35200        5.75462       -1.53993
H          3.75806        4.02192       -2.57754
H          3.43569        1.64596       -1.95816
H          0.37034        2.76667        0.75332
C          0.40469        5.43005        0.30272
Pd        -0.04227        0.02990        1.44310
C          0.81533        2.03806       -4.18528
C         -0.87707       -0.86479       -4.64961
H          1.36224        2.98193       -4.17981
H          1.54165        1.23852       -4.03581
H          0.37306        1.91251       -5.17427
H         -1.59528       -0.13330       -4.27762
H         -0.43770       -0.46986       -5.56643
H         -1.43149       -1.76859       -4.90618
H          0.23804       -6.16033       -0.15714
H          1.50532       -4.93833       -0.29112
H          0.46050       -4.97810        1.13035
H         -5.11328        3.03391        2.70756
H         -5.74147        1.87312        3.87992
H         -4.01513        2.21698        3.82257
H          3.29398       -4.10774        2.08094
H          4.77959       -3.84249        2.99057
H          3.22722       -3.35695        3.67659
H          0.86293        5.79245        1.22390
H          0.26328        6.28258       -0.36311
H         -0.58239        5.03616        0.54985
