171
-217.84668714
P         -1.62152        0.39477       -0.39305
P          1.62799       -0.35785       -0.23942
C         -0.82622        1.42298       -1.63644
C          1.00647       -1.25330       -1.66522
C          0.05090        0.87619       -2.56703
C          0.73721        1.74137       -3.44111
C          0.49426        3.10319       -3.37699
C         -0.40027        3.62330       -2.46622
C         -1.05250        2.77750       -1.59124
C          1.24875       -2.60224       -1.74897
C          0.74787       -3.33202       -2.80935
C         -0.01033       -2.70276       -3.77415
C         -0.26624       -1.34319       -3.70717
C          0.26645       -0.59478       -2.64010
Cl         1.46984        0.36320        2.89886
Cl        -1.70228       -0.21488        2.84700
C         -1.07503       -0.69288       -4.77466
C          1.72056        1.22347       -4.43209
H         -0.58478        4.68455       -2.43076
H         -1.74353        3.17839       -0.86804
H          1.83451       -3.08543       -0.98358
H          0.94698       -4.38880       -2.88054
H          1.01954        3.75914       -4.05065
H         -0.41209       -3.26973       -4.59696
C         -3.59732       -3.39656       -1.86401
C         -2.69942       -3.47489       -0.80634
C         -2.07233       -2.30316       -0.40451
C         -2.35541       -1.11145       -1.02465
C         -3.25444       -1.04805       -2.06053
C         -3.89634       -2.19908       -2.50268
H         -4.09266       -4.28885       -2.19710
H         -1.36375       -2.31396        0.40526
H         -3.45781       -0.09045       -2.50897
C         -4.72252        2.71338        1.97013
C         -3.38510        3.07318        2.08877
C         -2.45528        2.37091        1.33393
C         -2.85059        1.33864        0.52034
C         -4.17404        0.98667        0.42732
C         -5.14171        1.67540        1.14705
H         -5.46260        3.24489        2.53808
H         -1.40853        2.61672        1.39615
H         -4.44491        0.15988       -0.20435
C          4.23783       -2.94630        2.42492
C          2.88059       -3.23557        2.33382
C          2.10423       -2.45786        1.48465
C          2.66351       -1.42240        0.77800
C          4.00254       -1.14430        0.88948
C          4.82137       -1.90584        1.71106
H          4.85265       -3.53774        3.07547
H          1.04744       -2.64474        1.39407
H          4.41240       -0.31165        0.34547
C          3.96442        3.36947       -1.26939
C          2.88423        3.47548       -0.40234
C          2.17455        2.31893       -0.10683
C          2.52420        1.12446       -0.68451
C          3.58043        1.03885       -1.55763
C          4.33079        2.16811       -1.86379
H          4.55182        4.24621       -1.47036
H          1.35014        2.33684        0.58443
H          3.81988        0.07965       -1.98457
Pd        -0.07966       -0.00197        1.30907
C         -1.00422       -5.29828       -0.61639
C         -2.36653       -4.80167       -0.10830
C         -3.43134       -5.87705       -0.40137
C         -2.30687       -4.59502        1.41920
H         -0.71595       -6.22768       -0.12563
H         -1.03760       -5.47871       -1.69055
H         -0.22863       -4.55776       -0.42697
H         -3.44445       -6.14548       -1.45726
H         -3.22633       -6.78746        0.16181
H         -4.42487       -5.52759       -0.12081
H         -1.50335       -3.91780        1.70331
H         -3.24352       -4.17774        1.78806
H         -2.13308       -5.54018        1.93331
C         -6.31268       -2.58832       -3.02987
C         -4.95114       -2.17434       -3.61816
C         -4.54993       -3.15966       -4.73215
C         -5.09401       -0.76918       -4.23492
H         -6.27488       -3.59622       -2.61801
H         -6.60797       -1.91146       -2.22866
H         -7.09043       -2.56782       -3.79306
H         -4.50630       -4.18295       -4.36157
H         -5.26859       -3.13464       -5.55115
H         -3.57010       -2.91007       -5.13672
H         -5.42004       -0.04424       -3.48935
H         -4.15036       -0.42757       -4.65862
H         -5.83375       -0.77174       -5.03536
C         -1.75256        3.70438        3.89148
C         -2.90863        4.20923        3.00445
C         -4.03804        4.70988        3.92538
C         -2.42309        5.38093        2.13411
H         -0.88577        3.41863        3.29762
H         -1.43179        4.47596        4.59101
H         -2.06297        2.83296        4.46751
H         -4.85546        5.14207        3.34876
H         -4.43467        3.89688        4.53331
H         -3.67156        5.48213        4.60163
H         -1.61649        5.06816        1.47313
H         -3.23338        5.76055        1.51194
H         -2.05558        6.20119        2.75042
C         -7.43865        2.53267        0.61048
C         -6.62988        1.30576        1.07064
C         -7.11072        0.85640        2.46218
C         -6.87895        0.15757        0.07198
H         -8.49798        2.29131        0.52434
H         -7.34229        3.35877        1.31393
H         -7.09121        2.87913       -0.36270
H         -7.00000        1.65443        3.19543
H         -8.16143        0.56792        2.43810
H         -6.53268        0.00049        2.81011
H         -6.34932       -0.74650        0.37203
H         -7.94000       -0.08568        0.01823
H         -6.55237        0.43359       -0.93049
C          1.11611       -3.70536        4.04759
C          2.20742       -4.33869        3.16275
C          3.21422       -5.06612        4.07408
C          1.57174       -5.37070        2.21512
H          0.34919       -3.21878        3.44639
H          0.62723       -4.45846        4.66513
H          1.54599       -2.95228        4.70754
H          2.71726       -5.84154        4.65696
H          3.99827       -5.54591        3.48857
H          3.67927       -4.37384        4.77566
H          1.09491       -6.17517        2.77482
H          0.81369       -4.90785        1.58682
H          2.32478       -5.81140        1.56211
C          6.45212       -0.10985        2.33892
C          6.31158       -1.55104        1.81320
C          6.95468       -1.65670        0.41768
C          7.06024       -2.49746        2.77075
H          5.98523        0.60618        1.66343
H          5.97533       -0.00827        3.31357
H          7.50092        0.16698        2.44434
H          6.84698       -2.66542        0.01948
H          6.48821       -0.96850       -0.28605
H          8.01793       -1.42091        0.45873
H          6.65155       -2.43873        3.77934
H          6.99641       -3.53083        2.43037
H          8.11626       -2.23362        2.82754
C          1.22002        4.75004        1.03278
C          2.53538        4.82742        0.23372
C          2.36801        5.88952       -0.86934
C          3.66937        5.24126        1.18760
H          1.30654        4.05641        1.86875
H          0.95672        5.72528        1.44193
H          0.39975        4.42284        0.39475
H          1.59923        5.58800       -1.57981
H          2.07646        6.84985       -0.44438
H          3.29407        6.04005       -1.42246
H          3.44841        6.19478        1.66690
H          3.80636        4.49347        1.96857
H          4.61386        5.34423        0.65423
C          5.70420        0.73285       -3.45391
C          5.57760        2.10207       -2.75714
C          6.82450        2.32648       -1.88290
C          5.50481        3.19256       -3.84345
H          5.83194       -0.06928       -2.72756
H          4.82205        0.51611       -4.05570
H          6.56996        0.71445       -4.11576
H          7.73505        2.27589       -2.47963
H          6.79357        3.30214       -1.39878
H          6.88913        1.56892       -1.10203
H          5.49275        4.19078       -3.40821
H          6.36550        3.13480       -4.50962
H          4.60533        3.07969       -4.44731
H         -0.45658       -0.45367       -5.64067
H          1.30413        1.23944       -5.44019
H         -1.53145        0.23197       -4.41915
H         -1.87803       -1.34906       -5.11062
H          2.01747        0.19896       -4.20409
H          2.62402        1.83375       -4.43392
