111
-148.56052541
P         -2.44099       -2.37104       -0.38706
P         -0.06537       -0.28695       -0.48103
C         -1.62429       -2.01955       -1.96225
C         -0.60011       -1.09977       -1.99941
C         -2.69078       -4.18531       -0.13468
C         -1.72108       -4.72705        0.89294
C         -2.03115       -2.64828       -3.12134
H         -2.83813       -3.36198       -3.08461
C         -1.40572       -2.35153       -4.32013
H         -1.72145       -2.84171       -5.22657
C         -0.38108       -1.42508       -4.35655
H          0.10428       -1.19209       -5.28999
C          0.02119       -0.79484       -3.19252
H          0.81744       -0.06711       -3.20450
Pd        -1.33765       -1.17426        1.24308
Cl        -2.69930       -2.07515        2.78148
Cl        -0.23391        0.10590        2.71918
C         -4.17368       -4.27437        0.27165
C         -4.19743       -1.78700       -0.34132
H         -1.85433       -4.22491        1.85271
H         -1.86902       -5.79708        1.05682
H         -0.68507       -4.57022        0.58260
H         -4.23999       -4.24835        1.36812
H         -4.59593       -5.24593       -0.02708
H         -4.31318       -1.25320        0.61145
C         -5.00241       -3.10017       -0.32307
C         -4.50593       -0.87531       -1.51026
H         -2.53029       -4.66129       -1.11067
H         -5.30045       -3.34700       -1.35128
H         -5.94335       -2.96399        0.23128
H         -5.53265       -0.50419       -1.46854
H         -3.83281       -0.01521       -1.53157
H         -4.38468       -1.40433       -2.45703
C         -0.99392        4.17049       -0.50564
C          0.17887        3.68994       -1.14754
C          0.43611        2.32927       -1.10700
C         -0.45888        1.45716       -0.54389
C         -1.66004        1.90193       -0.05567
C         -1.97393        3.25051       -0.04754
O         -1.14638        5.55743       -0.24977
C          1.17220        4.58577       -1.90741
H          1.35446        1.93518       -1.50916
H         -2.35290        1.18313        0.34615
C         -3.35822        3.66385        0.47965
C          4.36956       -0.92248        0.37075
C          3.64554        0.08036        1.06389
C          2.29554        0.22010        0.79058
C          1.68137       -0.53915       -0.17009
C          2.39759       -1.44618       -0.90708
C          3.75285       -1.63338       -0.69064
O          5.69892       -1.23634        0.76047
C          4.28656        0.98427        2.12850
H          1.69200        0.91758        1.34490
H          1.87870       -2.01302       -1.65964
C          4.52503       -2.61037       -1.59182
C          0.61504        5.99678       -2.16384
C          2.48367        4.68837       -1.11131
C          1.46731        3.95994       -3.28843
C         -3.72979        5.10144        0.07703
C         -4.43964        2.73435       -0.11487
C         -3.37741        3.53427        2.01191
C         -0.55170        5.95763        0.97374
H          1.29105        6.57840       -2.79018
H         -0.35117        5.94322       -2.66430
H          0.47853        6.54238       -1.23331
H          3.20603        5.31780       -1.63037
H          2.31324        5.11595       -0.12497
H          2.93377        3.70562       -0.97602
H          0.54413        3.81186       -3.84803
H          2.11762        4.60644       -3.87716
H          1.96396        2.99534       -3.19787
H         -3.06656        5.82550        0.54438
H         -3.65661        5.22913       -1.00241
H         -4.74795        5.34388        0.38049
H         -4.33438        1.71182        0.24336
H         -5.43755        3.07138        0.16451
H         -4.38158        2.72197       -1.20288
H         -4.35770        3.79092        2.41246
H         -3.14538        2.51472        2.31867
H         -2.64404        4.19296        2.47244
H          0.50805        5.70742        0.97457
H         -0.66890        7.03466        1.09532
H         -1.03210        5.44762        1.80683
C          5.78925       -2.25664        1.74707
C          5.76018        1.27671        1.79351
C          3.56160        2.34814        2.19758
C          4.17670        0.30484        3.50190
C          5.98573       -2.15971       -1.77526
C          4.47745       -4.01708       -0.97655
C          3.89303       -2.66786       -3.00174
H          6.35758        0.36857        1.80355
H          5.84698        1.72260        0.80320
H          6.19682        1.96623        2.51557
H          3.50773        2.80827        1.21191
H          2.54920        2.24863        2.58610
H          4.09076        3.03452        2.85818
H          4.69242       -0.65220        3.51130
H          4.61055        0.92913        4.28252
H          3.13318        0.12112        3.75689
H          6.51479       -2.81634       -2.46550
H          6.02737       -1.14591       -2.17209
H          6.52631       -2.17072       -0.83220
H          4.93317       -4.03178        0.01049
H          3.44730       -4.35650       -0.87076
H          5.00702       -4.73501       -1.60233
H          2.90850       -3.13297       -2.98461
H          4.51182       -3.25588       -3.67920
H          3.79324       -1.66780       -3.42300
H          6.29175       -1.86627        2.63189
H          4.79453       -2.61123        2.01998
H          6.37884       -3.08792        1.36087
