75
-122.81871165
P          1.84530       -0.56442       -0.00788
C          1.70489       -1.56607       -1.49468
C          1.63798       -0.97921       -2.73741
C          1.62090       -1.76895       -3.87193
C          1.66946       -3.14373       -3.75308
C          1.73068       -3.72941       -2.50411
C          1.75072       -2.93590       -1.37106
H          1.81657       -3.37725       -0.38897
H          1.76494       -4.80238       -2.41095
H          1.65179       -3.76093       -4.63644
H          1.56396       -1.31144       -4.84588
H          1.59031        0.09433       -2.81387
C          3.17592       -1.28861        0.96524
C          4.43894       -1.32615        0.41926
C          5.47928       -1.89827        1.12911
C          5.24414       -2.43766        2.37806
C          3.97242       -2.41159        2.91500
C          2.93462       -1.83933        2.20273
H          1.93760       -1.81537        2.61160
H          3.78778       -2.83496        3.88863
H          6.05371       -2.88258        2.93332
H          6.46997       -1.92490        0.70596
H          4.60288       -0.91767       -0.56580
C          2.21849        1.14403       -0.43808
C          3.38089        1.79053       -0.08863
C          3.55207        3.13824       -0.37262
C          2.50951        3.83061       -0.98744
C          1.33321        3.19916       -1.32557
C          1.18473        1.82868       -1.05913
O         -0.00520        1.14996       -1.36956
C         -1.19416        1.82630       -1.05061
C         -1.34739        3.19652       -1.31571
C         -2.52266        3.82562       -0.96954
C         -3.55469        3.13372       -0.33639
C         -3.38450        1.78310       -0.06696
C         -2.22320        1.13911       -0.42473
P         -1.84700       -0.57013       -0.00215
C         -3.17880       -1.29933        0.96473
C         -2.94254       -1.84826        2.20397
C         -3.98237       -2.42350        2.91086
C         -5.25102       -2.45416        2.36691
C         -5.48106       -1.91637        1.11632
C         -4.43866       -1.34135        0.41182
H         -4.59853       -0.93351       -0.57419
H         -6.46930       -1.94646        0.68770
H         -6.06220       -2.90133        2.91801
H         -3.80176       -2.84552        3.88584
H         -1.94795       -1.82030        2.61845
C         -1.69748       -1.56873       -1.48863
C         -1.68871       -0.98337       -2.73380
C         -1.66314       -1.77572       -3.86641
C         -1.64633       -3.15090       -3.74290
C         -1.65064       -3.73444       -2.49140
C         -1.67867       -2.93865       -1.36011
H         -1.70017       -3.37876       -0.37542
H         -1.63365       -4.80751       -2.39481
H         -1.62224       -3.76986       -4.62487
H         -1.65146       -1.31970       -4.84264
H         -1.69465        0.09107       -2.81375
Pd        -0.00231       -0.05766        1.39365
Cl        -1.58662        0.86277        2.71040
Cl         1.61216        0.89569        2.65415
H         -4.15629        1.24117        0.45019
C         -4.82005        3.82049        0.03685
H         -5.15357        3.51062        1.02815
H         -5.61272        3.58568       -0.67465
H         -4.69290        4.90361        0.05383
H         -2.63560        4.87406       -1.18189
S         -0.01081        4.07752       -2.07999
H          2.61524        4.88172       -1.19025
C          4.79700        3.84290        0.03331
H          4.15149        1.25362        0.43544
H          4.99307        4.70031       -0.61176
H          4.71876        4.20359        1.05966
H          5.66051        3.17902       -0.02558
