115
-277.94087954
P         -1.74179       -0.64876       -0.14012
P          1.84416        0.51401       -0.11068
C         -2.10949       -2.39161        0.10267
C         -1.09689       -3.27795        0.39993
H         -0.12833       -2.91600        0.70263
C         -1.30615       -4.63080        0.23006
H         -0.49817       -5.33602        0.35007
C         -2.51841       -5.09289       -0.25604
C         -3.56752       -4.20105       -0.42652
H         -4.50350       -4.56321       -0.82035
C         -3.36522       -2.84751       -0.23978
H         -4.14958       -2.14141       -0.46387
C         -3.17804        0.28340        0.44029
C         -3.51828        0.32514        1.77139
H         -2.91691       -0.20292        2.49419
C         -4.62218        1.03918        2.18243
H         -4.89045        1.09012        3.22586
C         -5.39882        1.71361        1.25987
C         -5.05488        1.66655       -0.07631
H         -5.66080        2.21053       -0.78349
C         -3.94970        0.94822       -0.48566
H         -3.68419        0.91045       -1.52943
C         -1.48440       -0.27061       -1.90726
C         -1.01559        1.01902       -2.06710
H         -0.78986        1.60375       -1.19215
C         -0.67603        1.51827       -3.32361
C         -1.03349        0.76501       -4.43544
H         -0.81736        1.14365       -5.42041
C         -1.50554       -0.52360       -4.28499
H         -1.65381       -1.13619       -5.15816
C         -1.62679       -1.10710       -3.02394
C          1.68445       -0.11979       -1.81347
C          1.21333       -1.42079       -1.82205
H          0.92172       -1.87789       -0.89091
C          0.94965       -2.08954       -3.01680
C          1.37983       -1.49416       -4.19690
H          1.22349       -2.00519       -5.13218
C          1.84502       -0.19439       -4.19718
H          2.04774        0.29274       -5.13596
C          1.89232        0.55789       -3.02356
C         -1.55132       -2.61680       -2.95475
H         -2.18008       -3.04991       -3.74126
H         -2.01735       -2.96219       -2.03562
C         -0.08720       -3.18051       -3.05940
H          0.11134       -3.90651       -2.26388
H          0.03426       -3.75328       -3.98568
C          0.36216        2.60077       -3.44224
H          0.10710        3.41977       -2.76099
H          0.30162        3.04788       -4.44078
C          1.81569        2.06363       -3.16729
H          2.49320        2.38334       -3.96708
H          2.22168        2.53126       -2.27448
C          1.87888        2.30863       -0.00009
C          0.72283        3.02719        0.21671
C          3.05474        2.95164       -0.32311
C          0.71179        4.38535       -0.02718
C          3.03989        4.30834       -0.57476
C          1.85377        5.02015       -0.48753
C          3.35290       -0.13578        0.64110
C          3.83583       -1.34819        0.20588
C          4.01740        0.55517        1.62837
C          4.98409       -1.87235        0.76033
H          3.32257       -1.88075       -0.57711
C          5.16699        0.03084        2.18433
H          3.62856        1.49928        1.97495
C          5.65446       -1.18780        1.75552
H          5.38129       -2.81622        0.42202
H          5.70454        0.55887        2.95619
Pd         0.08035       -0.17131        1.27563
Cl        -1.24022       -1.25787        2.74674
Cl         1.46981        0.48215        2.91654
H          3.91984        4.80271       -0.95358
H          3.95465        2.37803       -0.48364
H         -0.20451        4.95261        0.03040
H         -0.17914        2.52713        0.52799
C         -3.96286       -7.04607       -0.99046
C         -2.52979       -6.44332       -0.92864
C         -1.90777       -6.21598       -2.34389
F         -3.88915       -8.30892       -1.43894
F         -4.46729       -7.02551        0.25215
F         -4.72937       -6.30446       -1.80190
F         -1.74843       -7.29768       -0.26364
F         -0.63422       -5.84054       -2.16528
F         -1.96865       -7.34858       -3.05676
F         -2.56882       -5.22530       -2.95857
C         -7.43349        1.80124        2.74004
C         -6.56385        2.56418        1.69770
C         -6.01034        3.90713        2.25390
F         -7.73642        0.60454        2.21489
F         -6.73626        1.63642        3.87285
F         -8.55474        2.50018        2.97516
F         -7.34346        2.84677        0.65030
F         -5.35253        4.51334        1.25404
F         -7.02922        4.67294        2.67216
F         -5.16331        3.65131        3.26179
C          6.77423       -3.22408        2.71509
C          6.94205       -1.72526        2.32637
C          8.07646       -1.50691        1.28450
F          7.86593       -3.63264        3.37997
F          5.69147       -3.31960        3.50130
F          6.59626       -3.95801        1.60780
F          7.26973       -1.05350        3.43355
F          8.18669       -0.18514        1.08289
F          9.22716       -2.00109        1.76534
F          7.74350       -2.11311        0.13550
C          3.01046        7.16784       -1.17844
C          1.69565        6.33557       -1.20751
C          1.24379        5.97293       -2.65762
F          2.76255        8.39752       -1.65575
F          3.41862        7.24043        0.09711
F          3.94631        6.55766       -1.91871
F          0.73123        7.06288       -0.63864
F          0.02267        5.43039       -2.57069
F          1.21684        7.07541       -3.41850
F          2.08572        5.06008       -3.16261
