87
-129.18417354
P         -1.65715       -0.22650        0.00456
P          1.58395        0.34501       -0.20475
C         -1.41311        1.08212       -1.22212
C          1.25505       -0.64765       -1.66549
C         -0.51434        0.99261       -2.28371
C         -0.30375        2.12597       -3.09311
C         -1.01811        3.28418       -2.84109
C         -1.91620        3.35061       -1.79906
C         -2.10200        2.24880       -0.98778
C          2.00066       -1.77706       -1.89862
C          1.75646       -2.54933       -3.01686
C          0.76060       -2.18169       -3.89711
C         -0.00467       -1.04781       -3.67921
C          0.25134       -0.25555       -2.54193
Cl         1.49781        1.23018        2.90887
Cl        -1.26831       -0.57746        3.18855
H         -2.46033        4.26115       -1.60871
H         -2.78738        2.30223       -0.15810
H          2.78021       -2.05368       -1.20862
H          2.33874       -3.43795       -3.19762
H         -0.85530        4.14501       -3.46728
H          0.56239       -2.78486       -4.76682
C         -1.05050       -4.49763       -1.42419
C         -0.47998       -4.08666       -0.22727
C         -0.69915       -2.78162        0.19527
C         -1.45038       -1.91604       -0.56631
C         -2.03748       -2.34001       -1.73486
C         -1.83544       -3.63744       -2.16716
H         -0.87677       -5.50263       -1.76913
C          0.38398       -5.00286        0.56537
H         -0.30626       -2.45086        1.14140
H         -2.63203       -1.64918       -2.31119
H         -2.27847       -3.97186       -3.09087
C         -5.72245        0.23684        2.00541
C         -4.68580        1.07432        2.36635
C         -3.44829        0.93838        1.76644
C         -3.25455       -0.03506        0.81395
C         -4.28658       -0.87077        0.45327
C         -5.54047       -0.74306        1.03960
H         -6.68510        0.33519        2.47761
H         -4.83804        1.82878        3.12071
H         -2.62589        1.57417        2.05426
H         -4.11802       -1.63483       -0.28631
C         -6.64761       -1.66698        0.67115
C          4.98704       -1.53750        2.17311
C          5.13837       -0.26855        1.64967
C          4.11163        0.30536        0.92408
C          2.94529       -0.39427        0.72261
C          2.79132       -1.65672        1.24736
C          3.80862       -2.24681        1.98623
H          5.78646       -1.98697        2.73717
H          6.05438        0.27619        1.80971
H          4.21180        1.29938        0.52032
H          1.87365       -2.19406        1.08071
C          3.63805       -3.61955        2.53510
C          2.54051        4.61119       -1.43082
C          3.20830        3.55723       -2.02326
C          2.92878        2.25940       -1.63704
C          1.98873        2.03069       -0.65992
C          1.32841        3.07779       -0.06085
C          1.59697        4.38802       -0.43736
H          2.74639        5.62184       -1.73976
H          3.93932        3.74438       -2.79264
H          3.42610        1.42235       -2.10170
H          0.59184        2.87929        0.69930
C          0.84827        5.51758        0.17694
Pd         0.04121        0.20576        1.54957
C          0.68030        2.11374       -4.21153
C         -1.08241       -0.69853       -4.64578
H          1.37407        1.27686       -4.12558
H          0.17430        2.03672       -5.17458
H          1.27291        3.02965       -4.21653
H         -1.69018       -1.57301       -4.88265
H         -1.74881        0.06529       -4.24354
H         -0.66088       -0.32147       -5.57837
H          1.42636       -4.91437        0.25571
H          0.32815       -4.77200        1.63016
H          0.08037       -6.04249        0.43519
H         -7.61731       -1.17522        0.76078
H         -6.54548       -2.01250       -0.35865
H         -6.65242       -2.54313        1.32102
H          3.80011       -4.36995        1.76004
H          4.34323       -3.81330        3.34446
H          2.63166       -3.75742        2.93323
H         -0.06610        5.72388       -0.38119
H          0.56941        5.28905        1.20663
H          1.44889        6.42812        0.19032
