111
-148.55583926
P         -2.50081       -2.06765       -1.17814
P          0.11570       -0.40506       -0.54492
C         -1.35666       -1.64433       -2.52009
C         -0.19719       -0.95761       -2.23118
C         -3.24572       -3.74606       -1.40891
C         -2.65382       -4.74902       -0.44283
C         -1.64379       -1.99060       -3.82493
H         -2.56127       -2.50961       -4.04909
C         -0.76069       -1.65419       -4.83659
H         -0.98415       -1.92367       -5.85594
C          0.40413       -0.97123       -4.54266
H          1.08981       -0.70720       -5.33089
C          0.68509       -0.61782       -3.23500
H          1.58110       -0.06960       -2.98880
Pd        -1.36743       -1.58954        0.77360
Cl        -3.10582       -2.44811        1.90207
Cl        -0.13405       -1.07261        2.57972
C         -4.75147       -3.48181       -1.22110
C         -4.02997       -1.02668       -1.15906
H         -3.09483       -5.73971       -0.57563
H         -1.57281       -4.83749       -0.57529
H         -2.83282       -4.44507        0.58950
H         -5.01347       -3.67083       -0.17093
H         -5.34385       -4.20054       -1.80755
H         -4.17903       -0.72525       -0.11348
C         -5.12668       -2.01792       -1.59063
C         -3.88321        0.18620       -2.05197
H         -3.03624       -4.03996       -2.44528
H         -5.26730       -1.93874       -2.67743
H         -6.09358       -1.73611       -1.14663
H         -3.66983       -0.11250       -3.07997
H         -4.79503        0.78781       -2.06264
H         -3.06151        0.82348       -1.71835
C         -1.11320        3.93855        0.03516
C         -1.05637        3.40298       -1.27765
C         -0.67644        2.08021       -1.43107
C         -0.43600        1.28570       -0.34139
C         -0.59607        1.76899        0.92949
C         -0.97206        3.08085        1.15584
O         -1.26881        5.33744        0.22498
C         -1.35751        4.24511       -2.52711
H         -0.54675        1.65458       -2.41025
H         -0.40925        1.09628        1.74848
C         -1.17978        3.55314        2.60267
C          4.41625       -0.71818        0.90237
C          3.90688        0.52736        0.45416
C          2.59389        0.57717        0.01803
C          1.82615       -0.55596       -0.05008
C          2.34649       -1.77972        0.27764
C          3.65245       -1.90083        0.72463
O          5.67064       -0.77492        1.56606
C          4.72914        1.82523        0.48061
H          2.14074        1.51505       -0.25354
H          1.70521       -2.64117        0.20329
C          4.19891       -3.29698        1.06083
C         -1.90945        3.35821       -3.66653
C         -2.42824        5.31085       -2.23095
C         -0.06268        4.91459       -3.01187
C         -1.70340        2.39358        3.48165
C          0.16217        4.03544        3.17456
C         -2.22676        4.67900        2.67679
C         -0.04031        6.05060        0.29622
H         -2.22969        3.96885       -4.51043
H         -1.15718        2.66577       -4.04126
H         -2.76938        2.78165       -3.32760
H         -3.33492        4.84642       -1.84458
H         -2.08014        6.02827       -1.49195
H         -2.68859        5.86588       -3.13186
H          0.34987        5.57239       -2.25076
H          0.69312        4.16573       -3.24786
H         -0.24180        5.50810       -3.90803
H         -1.97611        2.75244        4.47371
H         -2.58690        1.93751        3.03582
H         -0.95144        1.61812        3.61886
H          0.04972        4.37092        4.20517
H          0.89775        3.23143        3.15957
H          0.56459        4.86186        2.59342
H         -2.41890        4.96812        3.70973
H         -1.89492        5.56616        2.14355
H         -3.16843        4.35635        2.23393
H          0.04512        6.53887        1.26677
H          0.80255        5.37263        0.15535
H         -0.02050        6.82072       -0.47478
C          5.58715       -0.59756        2.97478
C          4.51289        2.53461        1.82626
C          6.22599        1.54050        0.26207
C          4.28183        2.77671       -0.65325
C          3.88924       -3.62032        2.53056
C          3.53558       -4.37201        0.17011
C          5.71495       -3.37796        0.80588
H          4.82811        1.90869        2.65760
H          5.07728        3.46562        1.87231
H          3.45897        2.77116        1.97142
H          6.79881        2.46648        0.21817
H          6.63761        0.93748        1.06733
H          6.38131        1.00087       -0.67155
H          3.27653        3.16092       -0.48616
H          4.94548        3.63862       -0.71895
H          4.29903        2.26696       -1.61621
H          2.81541       -3.58782        2.71353
H          4.24790       -4.61438        2.79619
H          4.35924       -2.90366        3.19954
H          2.47964       -4.49582        0.40567
H          3.62462       -4.11077       -0.88405
H          4.01072       -5.34187        0.31589
H          6.26420       -2.70407        1.45847
H          5.94570       -3.10736       -0.22392
H          6.08891       -4.38589        0.98392
H          4.54845       -0.46378        3.27984
H          6.00482       -1.46916        3.47848
H          6.16807        0.27615        3.26958
