171
-217.84320881
P         -1.59104        0.32996       -0.38441
P          1.64600       -0.32076       -0.29460
C         -0.86404        1.38463       -1.63872
C          1.02105       -1.25572       -1.69271
C         -0.01089        0.84284       -2.59255
C          0.61077        1.71048       -3.51054
C          0.32531        3.06548       -3.46450
C         -0.54698        3.57741       -2.52744
C         -1.13528        2.73078       -1.60924
C          1.29030       -2.60046       -1.76661
C          0.76122       -3.35873       -2.79198
C         -0.05029       -2.76114       -3.73310
C         -0.32756       -1.40518       -3.68099
C          0.23463       -0.62594       -2.65119
Cl         1.47326        0.40427        2.93145
Cl        -1.66828       -0.54250        2.78372
C         -1.22496       -0.80666       -4.70729
C          1.54972        1.19041       -4.54098
H         -0.76633        4.63245       -2.50780
H         -1.81318        3.12205       -0.86835
H          1.91995       -3.06015       -1.02258
H          0.97597       -4.41326       -2.85041
H          0.79560        3.72309       -4.17600
H         -0.48234       -3.35112       -4.52385
C         -3.75534       -3.25482       -2.08422
C         -4.08764       -1.98981       -2.55155
C         -3.38921       -0.90514       -2.03355
C         -2.41527       -1.09595       -1.08414
C         -2.09959       -2.35255       -0.63176
C         -2.76046       -3.46505       -1.13794
H         -4.30179       -4.10231       -2.45492
H         -3.60593        0.09990       -2.35408
H         -1.33907       -2.45328        0.12300
C         -4.48186        2.59035        2.28718
C         -4.96843        1.56251        1.48912
C         -4.06795        0.89639        0.66799
C         -2.74581        1.26394        0.63593
C         -2.28492        2.28889        1.42452
C         -3.14354        2.96512        2.28070
H         -5.16732        3.09917        2.93832
H         -4.38945        0.07178        0.05767
H         -1.24042        2.54860        1.38765
C          4.20730       -2.73054        2.57746
C          2.92391       -3.17875        2.29048
C          2.17482       -2.45636        1.37132
C          2.68883       -1.32909        0.77847
C          3.95384       -0.89245        1.08684
C          4.74253       -1.58946        1.99369
H          4.80607       -3.26900        3.28763
H          1.16787       -2.75850        1.13780
H          4.31052        0.01562        0.63441
C          3.95503        3.37252       -1.50103
C          4.35389        2.14117       -2.00838
C          3.61469        1.02272       -1.64311
C          2.53658        1.14516       -0.80128
C          2.16026        2.36657       -0.30233
C          2.86207        3.51269       -0.65438
H          4.51590        4.25170       -1.75608
H          3.89119        0.04388       -1.99871
H          1.31899        2.41305        0.36745
Pd        -0.02988       -0.07703        1.32283
C         -5.36123       -0.36419       -4.03681
C         -5.23925       -1.82253       -3.55346
C         -6.55779       -2.22572       -2.86874
C         -5.00319       -2.72341       -4.78107
H         -6.16143       -0.26541       -4.77018
H         -5.59098        0.30674       -3.20932
H         -4.43725       -0.02865       -4.50719
H         -6.74079       -1.60797       -1.99030
H         -7.40269       -2.10737       -3.54691
H         -6.53077       -3.26568       -2.54492
H         -4.06245       -2.47651       -5.27082
H         -4.96938       -3.77595       -4.50326
H         -5.80272       -2.60083       -5.51156
C         -1.23301       -4.91084        0.28374
C         -2.45205       -4.88869       -0.65639
C         -2.14422       -5.78849       -1.86826
C         -3.67162       -5.43853        0.10394
H         -0.99606       -5.93009        0.58846
H         -0.35610       -4.49762       -0.21337
H         -1.42480       -4.33351        1.18757
H         -1.87888       -6.79590       -1.54805
H         -3.00215       -5.86818       -2.53446
H         -1.31063       -5.38707       -2.44327
H         -3.90881       -4.80541        0.95878
H         -4.55122       -5.47674       -0.53787
H         -3.48060       -6.44643        0.47196
C         -7.32444        2.40026        1.25416
C         -6.45071        1.16926        1.55948
C         -6.76484        0.64405        2.97166
C         -6.79372        0.06748        0.53715
H         -7.16739        3.19168        1.98586
H         -7.09007        2.80310        0.26896
H         -8.38273        2.14014        1.26921
H         -7.80792        0.33865        3.05219
H         -6.14043       -0.21726        3.20841
H         -6.58012        1.40757        3.72651
H         -6.23064       -0.84417        0.73633
H         -7.85306       -0.18516        0.58039
H         -6.57296        0.39650       -0.47810
C         -3.62714        4.54541        4.21667
C         -2.59205        4.08715        3.17116
C         -2.21808        5.28744        2.28533
C         -1.34277        3.58186        3.92126
H         -3.20371        5.30674        4.87170
H         -4.50605        4.97791        3.73928
H         -3.94691        3.71083        4.84044
H         -1.79497        6.09707        2.87967
H         -1.48531        5.00237        1.53247
H         -3.09561        5.67093        1.76509
H         -0.96318        4.34214        4.60346
H         -1.57863        2.69166        4.50392
H         -0.53755        3.32564        3.23461
C          0.95799       -4.03524        3.59366
C          2.30961       -4.41682        2.95800
C          3.22024       -4.98065        4.06583
C          2.09927       -5.50657        1.89276
H          0.51128       -4.88843        4.10362
H          1.08882       -3.23560        4.32240
H          0.24717       -3.68787        2.84594
H          3.41140       -4.23107        4.83357
H          2.75384       -5.83885        4.54955
H          4.17551       -5.31277        3.65998
H          1.63497       -6.39291        2.32472
H          1.45975       -5.14900        1.08789
H          3.05097       -5.80292        1.45204
C          7.17065       -2.21755        2.09673
C          6.14395       -1.11016        2.39744
C          6.15128       -0.78558        3.90243
C          6.55473        0.15697        1.62325
H          7.15799       -2.47618        1.03804
H          8.17931       -1.89386        2.35302
H          6.95750       -3.12210        2.66496
H          5.41087       -0.01976        4.13293
H          5.91662       -1.66667        4.49849
H          7.12767       -0.41870        4.21836
H          5.86985        0.98087        1.82329
H          7.55419        0.48160        1.91234
H          6.56587       -0.03234        0.55092
C          6.24265        3.33485       -3.23247
C          5.60132        1.97590       -2.89052
C          5.22234        1.27695       -4.20880
C          6.63712        1.12261       -2.13718
H          7.11184        3.20068       -3.87633
H          5.53802        3.97897       -3.75835
H          6.57804        3.84947       -2.33226
H          4.51126        1.87900       -4.77237
H          6.10135        1.12705       -4.83552
H          4.77365        0.30100       -4.02853
H          6.24040        0.13405       -1.90831
H          7.54133        0.99047       -2.73110
H          6.91741        1.60060       -1.19886
C          3.62825        5.39580        0.80608
C          2.49209        4.89649       -0.10397
C          1.19014        4.84642        0.71764
C          2.29016        5.87993       -1.27213
H          3.39139        6.37317        1.22610
H          3.79149        4.70323        1.63167
H          4.56390        5.48540        0.25511
H          0.36460        4.47431        0.11207
H          1.29948        4.20127        1.58899
H          0.92001        5.83968        1.07584
H          1.51974        5.51730       -1.95144
H          1.98402        6.86031       -0.90751
H          3.20649        6.01150       -1.84595
H         -1.50288        0.21658       -4.45170
H          1.01341        0.88391       -5.43973
H         -2.14578       -1.38323       -4.79415
H         -0.74463       -0.79317       -5.68668
H          2.10555        0.32900       -4.16787
H          2.27228        1.95432       -4.82955
