171
-217.84188516
P         -1.46871        0.17056       -0.36500
P          1.66296       -0.60224        0.33583
C         -0.54445        0.96362       -1.69341
C          1.05093       -1.69321       -0.96788
C          0.34927        0.20181       -2.43501
C          1.09950        0.82390       -3.45156
C          0.88757        2.16753       -3.71592
C         -0.01840        2.90384       -2.98103
C         -0.73092        2.29622       -1.96642
C          1.10831       -3.03360       -0.66694
C          0.60834       -3.96929       -1.55178
C          0.03330       -3.54904       -2.73162
C         -0.05194       -2.20315       -3.04584
C          0.47760       -1.25083       -2.15440
Cl         0.70262       -0.71709        3.52758
Cl        -2.27684       -1.29709        2.46120
C         -0.72798       -1.79956       -4.30948
C          2.09631        0.05770       -4.24902
H         -0.16638        3.95003       -3.19360
H         -1.43908        2.86272       -1.38697
H          1.53935       -3.34538        0.27316
H          0.65881       -5.01949       -1.31507
H          1.43783        2.63638       -4.51372
H         -0.37208       -4.27115       -3.42028
C         -4.10115       -3.02823       -2.20233
C         -3.38069       -3.33736       -1.05581
C         -2.59409       -2.34022       -0.49555
C         -2.51851       -1.09981       -1.07657
C         -3.21503       -0.82076       -2.22729
C         -4.03203       -1.78171       -2.81164
H         -4.74519       -3.77742       -2.62417
H         -2.03994       -2.52249        0.40700
H         -3.09853        0.14763       -2.68089
C         -4.24818        3.27832        1.48863
C         -3.32531        2.65280        2.31756
C         -2.46815        1.72027        1.75132
C         -2.54358        1.40364        0.41564
C         -3.47866        2.02049       -0.37930
C         -4.33939        2.98069        0.13486
H         -4.91547        4.00638        1.90774
H         -1.75041        1.22466        2.37838
H         -3.53741        1.75817       -1.42090
C          5.60284       -2.33895        1.75625
C          4.69318       -1.90453        2.71339
C          3.48252       -1.39363        2.26978
C          3.19610       -1.32726        0.93110
C          4.10307       -1.76676       -0.00212
C          5.33132       -2.28176        0.39451
H          6.55079       -2.73260        2.07148
H          2.74497       -1.05459        2.97408
H          3.83989       -1.70784       -1.04461
C          2.77947        3.69670       -0.57125
C          1.70915        3.46680        0.28579
C          1.34951        2.14835        0.53599
C          2.03392        1.11357       -0.05801
C          3.09810        1.36151       -0.88976
C          3.49840        2.66399       -1.15904
H          3.08157        4.70637       -0.77607
H          0.54211        1.92880        1.21208
H          3.62650        0.52628       -1.31437
Pd        -0.33231       -0.64338        1.54265
C         -3.06576       -5.78885       -1.48212
C         -3.48058       -4.73772       -0.43609
C         -4.93129       -4.99056        0.01124
C         -2.55671       -4.88219        0.78994
H         -3.10796       -6.79398       -1.06298
H         -3.72036       -5.76335       -2.35238
H         -2.04712       -5.60889       -1.82435
H         -5.03211       -5.97284        0.47243
H         -5.24447       -4.24175        0.73854
H         -5.61876       -4.94527       -0.83265
H         -2.62248       -5.88640        1.20811
H         -1.51608       -4.70423        0.51962
H         -2.83394       -4.18004        1.57591
C         -4.49357       -0.13672       -4.69756
C         -4.89895       -1.47180       -4.04118
C         -6.36863       -1.37745       -3.59497
C         -4.75155       -2.58803       -5.09370
H         -4.65864        0.70263       -4.02277
H         -3.44280       -0.14586       -4.98627
H         -5.08305        0.04723       -5.59566
H         -6.49461       -0.59538       -2.84648
H         -7.01993       -1.14747       -4.43800
H         -6.70474       -2.31638       -3.15584
H         -5.09381       -3.54839       -4.71109
H         -5.33975       -2.36157       -5.98289
H         -3.71254       -2.69909       -5.40074
C         -4.24853        4.00279        4.27009
C         -3.25598        2.90987        3.83012
C         -1.83528        3.36150        4.21284
C         -3.59803        1.60483        4.57340
H         -5.27603        3.71055        4.05445
H         -4.17621        4.18115        5.34291
H         -4.04225        4.94569        3.76381
H         -1.09933        2.59333        3.97952
H         -1.56341        4.26841        3.67405
H         -1.76694        3.57086        5.28014
H         -4.59451        1.25737        4.30195
H         -2.89154        0.81303        4.32650
H         -3.57216        1.75108        5.65294
C         -6.19468        4.71326       -0.06721
C         -5.34716        3.65855       -0.80386
C         -6.29106        2.59094       -1.38791
C         -4.58378        4.35644       -1.94573
H         -6.89709        5.19048       -0.75052
H         -6.77440        4.25966        0.73646
H         -5.56508        5.49486        0.35773
H         -7.02810        3.04191       -2.05210
H         -5.73939        1.84562       -1.95922
H         -6.82504        2.07237       -0.59193
H         -5.27099        4.87101       -2.61707
H         -3.88505        5.09228       -1.54792
H         -4.01417        3.64128       -2.53816
C          6.36155       -2.56487        4.52033
C          4.97398       -1.96583        4.22146
C          3.90532       -2.84317        4.90024
C          4.91937       -0.54139        4.80439
H          7.15307       -1.96343        4.07361
H          6.54298       -2.60269        5.59441
H          6.44054       -3.58193        4.13677
H          4.08805       -2.92207        5.97168
H          2.90715       -2.42906        4.76276
H          3.91035       -3.84913        4.48122
H          5.65192        0.10209        4.31757
H          3.93594       -0.09418        4.66405
H          5.13250       -0.54855        5.87313
C          6.70404       -4.24366       -0.35397
C          6.37850       -2.76247       -0.62002
C          7.65432       -1.91341       -0.47186
C          5.86925       -2.62850       -2.06922
H          7.12063       -4.38575        0.64246
H          5.80480       -4.85459       -0.43116
H          7.43018       -4.61897       -1.07487
H          7.43571       -0.85852       -0.63687
H          8.08321       -2.01394        0.52448
H          8.41198       -2.21818       -1.19359
H          4.96802       -3.22139       -2.22479
H          5.64636       -1.59005       -2.31330
H          6.62053       -2.97844       -2.77704
C         -0.51869        4.55653        0.72073
C          0.98917        4.60693        1.02227
C          1.51662        5.99011        0.59415
C          1.22511        4.44133        2.53441
H         -0.70317        4.71022       -0.34164
H         -0.94555        3.59695        1.00359
H         -1.05391        5.33269        1.26733
H          2.57547        6.09772        0.82851
H          1.37989        6.14712       -0.47572
H          0.98278        6.78466        1.11545
H          0.84534        3.48437        2.88917
H          2.28989        4.48003        2.76335
H          0.72997        5.23206        3.09756
C          4.28492        3.77460       -3.26784
C          4.72535        2.97815       -2.02769
C          5.43627        1.69170       -2.49314
C          5.72900        3.81020       -1.20687
H          3.58881        3.19326       -3.87016
H          3.79018        4.70350       -2.98637
H          5.14075        4.02679       -3.89376
H          6.31157        1.92976       -3.09732
H          5.77364        1.10179       -1.64106
H          4.77629        1.07386       -3.10050
H          6.02670        3.27358       -0.30616
H          6.62750        4.02035       -1.78686
H          5.30028        4.76406       -0.90226
H         -1.68327       -2.31468       -4.41271
H          2.92363        0.69589       -4.56221
H         -0.11670       -2.05095       -5.17735
H         -0.92900       -0.72799       -4.33430
H          1.64025       -0.35860       -5.14797
H          2.51562       -0.76604       -3.66901
