111
-148.55417988
P         -2.45648       -2.11841       -1.04671
P          0.12316       -0.34954       -0.55223
C         -1.33452       -1.75657       -2.42483
C         -0.19634       -1.01412       -2.19615
C         -3.15191       -3.83029       -1.15197
C         -2.53379       -4.73935       -0.11219
C         -1.61932       -2.20396       -3.69907
H         -2.52104       -2.76658       -3.87728
C         -0.75426       -1.91341       -4.74006
H         -0.97566       -2.26233       -5.73549
C          0.39004       -1.17499       -4.50595
H          1.06220       -0.94746       -5.31688
C          0.66828       -0.72029       -3.22934
H          1.54981       -0.13091       -3.03029
Pd        -1.33348       -1.45597        0.85895
Cl        -3.08180       -2.26085        2.01303
Cl        -0.06016       -0.86079        2.61044
C         -4.66537       -3.59686       -0.98586
C         -4.01556       -1.12401       -1.09972
H         -1.45035       -4.80642       -0.23727
H         -2.72377       -4.36281        0.89397
H         -2.94585       -5.74959       -0.16916
H         -4.92532       -3.71689        0.07491
H         -5.23482       -4.37301       -1.51944
H         -4.17541       -0.75471       -0.07781
C         -5.08166       -2.17495       -1.46063
C         -3.90157        0.02757       -2.07506
H         -2.93045       -4.19506       -2.16302
H         -5.22047       -2.17831       -2.55054
H         -6.05789       -1.89013       -1.03956
H         -3.68188       -0.33601       -3.08059
H         -4.82873        0.60323       -2.12470
H         -3.09589        0.70733       -1.78915
C         -1.15550        4.00406       -0.17968
C         -1.11227        3.40230       -1.46421
C         -0.70849        2.08067       -1.55719
C         -0.43455        1.34770       -0.43273
C         -0.58877        1.89183        0.81449
C         -0.98069        3.20775        0.98058
O         -1.33302        5.40789       -0.05787
C         -1.45875        4.17173       -2.74855
H         -0.59029        1.60665       -2.51537
H         -0.38591        1.26296        1.66409
C         -1.16919        3.75110        2.40497
C          4.39495       -0.81627        0.94577
C          3.79415        0.46790        0.91351
C          2.49498        0.56971        0.44740
C          1.82514       -0.52420       -0.03401
C          2.43401       -1.74965       -0.09616
C          3.73522       -1.92169        0.34868
O          5.63751       -1.00175        1.60827
C          4.50207        1.73456        1.41936
H          1.97676        1.51189        0.47463
H          1.86792       -2.57854       -0.48557
C          4.39186       -3.30481        0.21686
C         -0.18803        4.83382       -3.30214
C         -2.02536        3.21634       -3.82352
C         -2.53892        5.23604       -2.48255
C         -2.23640        4.85961        2.44176
C         -1.65185        2.62986        3.35429
C          0.17394        4.28792        2.92304
C         -0.11691        6.14531       -0.05262
H          0.57259        4.08467       -3.52090
H         -0.40035        5.37833       -4.22187
H          0.23454        5.53521       -2.58672
H         -1.27232        2.51498       -4.17957
H         -2.86747        2.64721       -3.43139
H         -2.37621        3.77547       -4.69063
H         -3.42776        4.78007       -2.04771
H         -2.18391        5.99807       -1.79320
H         -2.83117        5.73701       -3.40510
H         -2.41392        5.19902        3.46193
H         -1.93232        5.72349        1.85625
H         -3.18005        4.49674        2.03577
H         -2.53423        2.13357        2.95124
H         -0.88141        1.87780        3.51700
H         -1.91275        3.03552        4.33139
H          0.92462        3.49811        2.93515
H          0.54855        5.08992        2.29131
H          0.07520        4.67497        3.93683
H         -0.12595        6.86968       -0.86694
H         -0.02230        6.69014        0.88650
H          0.73551        5.47510       -0.17112
C          5.51513       -1.32554        2.98772
C          3.98943        2.98503        0.66750
C          4.20994        1.91348        2.91706
C          6.02012        1.65637        1.17743
C          5.91331       -3.18162        0.01663
C          4.08717       -4.13282        1.47456
C          3.83683       -4.05705       -1.01424
H          4.57933        3.86289        0.93019
H          4.05991        2.84519       -0.41087
H          2.95383        3.21137        0.91739
H          4.67954        2.81849        3.30159
H          3.13713        1.98793        3.09332
H          4.58082        1.07075        3.49512
H          6.23217        1.49169        0.12155
H          6.51362        2.57865        1.48293
H          6.47036        0.84132        1.73835
H          6.39288       -2.73093        0.88180
H          6.36835       -4.15937       -0.13967
H          6.13703       -2.56078       -0.85025
H          4.48070       -3.65348        2.36751
H          3.01181       -4.24815        1.60829
H          4.52770       -5.12700        1.40419
H          3.92096       -3.44574       -1.91240
H          2.79130       -4.33136       -0.88216
H          4.38981       -4.98049       -1.18485
H          4.46391       -1.37049        3.27546
H          5.98703       -2.28874        3.18086
H          6.02485       -0.57163        3.58738
