72
-98.10127902
Fe        -0.05044        2.83320       -0.02991
P          1.81914       -0.00591       -0.04421
P         -1.85908       -0.04454        0.06038
C          1.39338        1.62857        0.67625
C          0.40369        1.86561        1.71151
C          0.32413        3.29795        1.93352
C          1.29610        3.93908        1.06650
C          1.99479        2.90613        0.32152
C         -1.43641        1.55465       -0.72162
C         -2.05681        2.84290       -0.45758
C         -1.39300        3.83482       -1.28594
C         -0.38339        3.15582       -2.07690
C         -0.42531        1.74345       -1.74631
C          3.12252       -0.77373        1.03868
C          4.32794        0.12484        0.71309
C          2.96835        0.32078       -1.47622
C          4.32851        0.57190       -0.77981
C         -3.26938       -0.76722       -0.90689
C         -4.46726        0.00438       -0.32872
C         -2.80449        0.23256        1.64043
C         -4.27545        0.35321        1.17450
H         -0.19602        1.10342        2.20416
H         -0.33618        3.80124        2.64369
H          1.49902        5.01134        1.01617
H          2.77860        3.06687       -0.42029
H         -2.86908        3.02690        0.24860
H          0.19452        0.95771       -2.17823
Cl         1.56041       -3.05849       -0.43222
Cl        -1.55050       -3.09473        0.28413
Pd        -0.00663       -1.48575       -0.04273
H          3.30319       -1.78596        0.65799
C          2.75094       -0.83163        2.52461
H          2.60388        1.22173       -1.98411
C          3.04907       -0.83966       -2.46541
H          5.26937       -0.38196        0.97664
H          4.28025        1.00907        1.36576
H          4.61738        1.62993       -0.86271
H          5.10924        0.02331       -1.32525
H         -1.62571        4.90113       -1.32046
H          0.27543        3.62088       -2.81306
H          3.65922       -0.69368        3.12765
H          3.88416       -0.65988       -3.15686
H         -3.33346       -1.82834       -0.64021
C         -3.12984       -0.60958       -2.41746
H         -2.44958        1.17528        2.07333
C         -2.61884       -0.91275        2.63668
H         -5.39938       -0.55983       -0.48745
H         -4.58855        0.93097       -0.90867
H         -4.66434        1.36027        1.38636
H         -4.89277       -0.32142        1.78383
H         -4.09198       -0.84919       -2.89120
H         -2.78989       -1.86014        2.10894
C          2.07587       -2.13794        2.91922
H          1.20318       -2.34272        2.29961
H          2.75301       -2.98429        2.78918
H          1.75073       -2.13533        3.96195
C          1.77640       -1.07155       -3.25762
H          1.47811       -0.17637       -3.80633
H          1.88671       -1.88077       -3.98316
H          0.95679       -1.34424       -2.59632
C         -2.03325       -1.47303       -3.01163
H         -1.06614       -1.20694       -2.59075
H         -2.19869       -2.53009       -2.79512
H         -1.96119       -1.36258       -4.09602
C         -1.26713       -0.93076        3.32801
H         -1.11440       -0.03100        3.92704
H         -1.16106       -1.78840        3.99630
H         -0.45675       -0.98236        2.60307
H          2.11427        0.02834        2.76781
H          3.32224       -1.74915       -1.91459
H         -2.95035        0.44857       -2.64836
H         -3.41247       -0.85945        3.39516
