72
-108.39928946
Cl         1.79200       -0.18167        2.88873
Cl        -0.92772        1.25428        2.73707
P         -1.19731        0.99058       -0.35568
P          2.20588       -0.16908       -0.33930
C          3.35511        1.33582       -0.22320
C          4.42138        1.30853       -1.32752
C          2.50507        2.59785       -0.34758
C          3.14255       -1.80685       -0.04024
C          4.52026       -1.75229       -0.69180
C          1.46658       -0.38315       -2.05708
C          1.38877        0.85846       -2.92795
C         -1.11717       -0.33300       -1.59717
C          0.09630       -1.04256       -2.00625
C         -0.32052       -2.17277       -2.83918
C         -1.76791       -2.16447       -2.92283
C         -2.25669       -1.02469       -2.17012
C          4.02814        1.33819        1.14620
H          4.79674        2.31350       -1.52748
H          5.28421        0.70877       -1.04247
H          1.98529        2.64984       -1.30100
H          3.12700        3.49116       -0.26845
C          3.29004       -2.08594        1.45029
H          5.18803       -1.08234       -0.15340
H          4.45346       -1.42978       -1.73114
H          2.16198       -1.08013       -2.53837
H          0.67338        1.56564       -2.51771
H          1.03218        0.60715       -3.92880
H          2.34239        1.36890       -3.04472
H          0.34826       -2.84365       -3.38138
H         -2.38179       -2.86712       -3.49062
Pd         0.48729        0.44733        1.17311
H         -3.30052       -0.74552       -2.01141
C          2.34416       -2.94034       -0.68137
H          4.98721       -2.73858       -0.68254
H          2.31725       -2.20857        1.92340
H          3.85493       -3.00391        1.61960
H          3.81086       -1.27923        1.96269
H          1.29781       -2.87781       -0.39958
H          2.40304       -2.91619       -1.76918
H          2.72212       -3.91320       -0.36211
H          4.03775        0.90273       -2.26099
H          1.76320        2.65195        0.44849
H          4.68401        0.47896        1.27403
H          4.63899        2.23366        1.27242
H          3.28941        1.32780        1.94720
C         -2.89845        1.04816        0.26330
C         -3.41134        2.07204        1.01993
C         -4.73882        1.74925        1.30132
C         -4.98347        0.53940        0.69999
O         -3.86266        0.09828        0.05786
H         -2.87882        2.95201        1.34162
H         -5.43486        2.33415        1.88013
H         -5.92221       -0.00021        0.72308
C         -0.80345        2.63611       -0.97117
C         -0.57736        3.68420       -0.11437
C         -0.30347        4.80385       -0.90118
C         -0.37580        4.38989       -2.20900
O         -0.67999        3.05947       -2.26659
H         -0.59975        3.63150        0.96282
H         -0.07964        5.79807       -0.55060
H         -0.21643        5.01397       -3.07960
Fe        -1.17856       -2.25046       -0.95585
C         -1.90429       -1.97386        0.93136
C         -0.66403       -2.71929        0.96585
C         -0.84137       -3.93732        0.19554
C         -2.19180       -3.92872       -0.33570
C         -2.85266       -2.72420        0.13331
H         -2.09756       -1.03408        1.45309
H          0.21060       -2.44207        1.55624
H         -0.10734       -4.73620        0.06886
H         -2.64702       -4.71404       -0.94337
H         -3.88537       -2.43055       -0.06768
