171
-217.84549553
P         -1.54586        0.37953       -0.45246
P          1.61534       -0.36442       -0.27328
C         -0.78788        1.37261       -1.74273
C          1.03282       -1.29494       -1.69594
C          0.06535        0.79382       -2.67469
C          0.71711        1.62579       -3.60549
C          0.45596        2.98579       -3.59718
C         -0.42000        3.53566       -2.68549
C         -1.03264        2.72406       -1.75089
C          1.29268       -2.64304       -1.73952
C          0.80187       -3.41264       -2.77593
C          0.02731       -2.82588       -3.75390
C         -0.24712       -1.46876       -3.72872
C          0.28697       -0.67734       -2.69328
Cl         1.40466        0.29374        2.97541
Cl        -1.78001       -0.36678        2.73796
C         -1.09468       -0.87571       -4.79968
C          1.66948        1.06903       -4.60553
H         -0.62094        4.59446       -2.69725
H         -1.70671        3.14685       -1.02358
H          1.88244       -3.09678       -0.95957
H          1.01614       -4.46821       -2.81441
H          0.94934        3.61650       -4.31740
H         -0.37520       -3.42492       -4.55335
C         -3.69841       -3.34028       -1.85447
C         -2.75973       -3.45401       -0.83574
C         -2.07959       -2.30597       -0.45360
C         -2.34724       -1.10256       -1.05712
C         -3.27883       -1.00508       -2.06072
C         -3.97712       -2.13108       -2.48077
H         -4.24402       -4.21177       -2.16312
H         -1.34081       -2.34635        0.32785
H         -3.46390       -0.03955       -2.50017
C         -4.52251        2.77675        1.99726
C         -3.17089        3.09049        2.09204
C         -2.27897        2.37201        1.30686
C         -2.72412        1.36966        0.48157
C         -4.06030        1.06694        0.40850
C         -4.99061        1.76917        1.16133
H         -5.22559        3.32133        2.59739
H         -1.22264        2.57443        1.36356
H         -4.38123        0.26079       -0.22746
C          4.26940       -2.88488        2.40875
C          2.92193       -3.20992        2.30311
C          2.13605       -2.44692        1.45064
C          2.67655       -1.39471        0.75392
C          4.00726       -1.08232        0.87654
C          4.83556       -1.82932        1.70406
H          4.89837       -3.45590        3.06544
H          1.08494       -2.65958        1.34969
H          4.39080       -0.23756        0.33314
C          3.83499        3.46712       -1.18482
C          2.79422        3.49703       -0.26436
C          2.10181        2.31589       -0.03500
C          2.45718        1.16061       -0.68548
C          3.49396        1.14427       -1.58529
C          4.20678        2.30705       -1.85390
H          4.38579        4.36739       -1.38142
H          1.28369        2.29023        0.66357
H          3.74593        0.21361       -2.06467
Pd        -0.07051       -0.07892        1.31192
C         -2.40538       -4.59539        1.38192
C         -2.44236       -4.78966       -0.14774
C         -1.07280       -5.28554       -0.63784
C         -3.50366       -5.85973       -0.46929
H         -2.23819       -5.54447        1.89094
H         -1.60679       -3.91909        1.68258
H         -3.34763       -4.18150        1.74019
H         -0.79623       -6.22126       -0.15237
H         -1.08830       -5.45381       -1.71437
H         -0.29740       -4.55074       -0.42641
H         -3.51094       -6.10321       -1.53137
H         -3.29951       -6.78211        0.07437
H         -4.49921       -5.51896       -0.18523
C         -5.14977       -0.66237       -4.19750
C         -5.08101       -2.05734       -3.54522
C         -6.43620       -2.35194       -2.87666
C         -4.81114       -3.09713       -4.64952
H         -5.39878        0.10377       -3.46368
H         -4.20040       -0.39899       -4.66262
H         -5.91653       -0.63498       -4.97161
H         -7.24955       -2.29511       -3.59984
H         -6.44880       -3.34798       -2.43525
H         -6.63846       -1.63290       -2.08294
H         -3.83580       -2.93335       -5.10604
H         -4.82923       -4.11221       -4.25527
H         -5.56460       -3.03481       -5.43456
C         -1.65482        3.47597        4.04672
C         -2.62742        4.15093        3.06007
C         -3.75526        4.82220        3.86660
C         -1.88440        5.23644        2.26179
H         -2.15875        2.68572        4.60261
H         -0.80962        3.02650        3.52708
H         -1.26082        4.19671        4.76281
H         -4.29783        4.09097        4.46547
H         -3.35025        5.57031        4.54800
H         -4.46298        5.32516        3.20786
H         -1.04115        4.81373        1.71948
H         -2.54859        5.70551        1.53616
H         -1.49967        6.01369        2.92183
C         -7.35552        2.26509        1.96505
C         -6.47342        1.38480        1.05953
C         -6.64364       -0.08507        1.48827
C         -6.94277        1.55527       -0.39748
H         -8.40420        1.98141        1.87668
H         -7.07261        2.15786        3.01204
H         -7.27396        3.31644        1.68975
H         -6.28703       -0.23165        2.50756
H         -7.69074       -0.38468        1.44923
H         -6.08128       -0.75533        0.83904
H         -6.80858        2.58531       -0.72719
H         -6.37925        0.91244       -1.07260
H         -7.99779        1.30194       -0.50008
C          1.17094       -3.72256        4.01689
C          2.26608       -4.33175        3.12015
C          3.28693       -5.05774        4.01651
C          1.63728       -5.35960        2.16254
H          0.39630       -3.23796        3.42383
H          0.69333       -4.48896        4.62683
H          1.59421       -2.97233        4.68430
H          4.07768       -5.51328        3.42071
H          3.74194       -4.37008        4.72911
H          2.80459       -5.85143        4.58696
H          0.86389       -4.90125        1.54926
H          2.39072       -5.77754        1.49519
H          1.18024       -6.18056        2.71475
C          6.58527       -1.10822        3.34510
C          6.32412       -1.49679        1.87868
C          6.75275       -0.32151        0.97704
C          7.17078       -2.72785        1.50641
H          6.34251       -1.92781        4.02044
H          7.63189       -0.84647        3.49955
H          5.97629       -0.25008        3.62894
H          6.20262        0.58588        1.22581
H          7.81407       -0.10615        1.09993
H          6.58215       -0.55247       -0.07435
H          8.23495       -2.51162        1.59943
H          6.94617       -3.57500        2.15328
H          6.97664       -3.03107        0.47773
C          1.09237        5.32202       -0.17846
C          2.37775        4.78139        0.46702
C          3.47299        5.86237        0.38033
C          2.12212        4.47959        1.95802
H          0.29720        4.57926       -0.13557
H          0.74581        6.22232        0.32858
H          1.26277        5.56754       -1.22640
H          3.19682        6.74005        0.96468
H          4.42064        5.48835        0.76761
H          3.62491        6.19158       -0.64716
H          1.88513        5.39204        2.50488
H          1.28787        3.79337        2.09301
H          3.00292        4.03058        2.41634
C          5.60828        0.96889       -3.50421
C          5.41026        2.32914       -2.80707
C          6.68127        2.65332       -2.00071
C          5.19633        3.40552       -3.88810
H          5.81184        0.18145       -2.77878
H          4.72575        0.68925       -4.07853
H          6.45242        1.00652       -4.19262
H          6.60566        3.62819       -1.52022
H          6.84328        1.90901       -1.22151
H          7.56032        2.66479       -2.64485
H          4.27952        3.21868       -4.44553
H          5.12361        4.40038       -3.45075
H          6.02466        3.41550       -4.59636
H         -1.95602       -1.51104       -5.00769
H          2.52674        1.72977       -4.73588
H         -0.53078       -0.76412       -5.72672
H         -1.47256        0.10638       -4.51230
H          1.18921        0.95092       -5.57770
H          2.04937        0.09487       -4.29458
