58
-89.86839850
P          1.60950        0.31563        0.92029
C          2.98864        1.42808        0.63957
C          2.81702        2.77862        0.83915
C          3.87118        3.64535        0.61083
C          5.08807        3.15155        0.18335
C          5.25401        1.79530       -0.01743
C          4.19833        0.93134        0.21130
H          4.30955       -0.12897        0.05147
H          1.85760        3.15015        1.16348
C          1.98796       -1.34347        0.33780
C          2.24499       -2.37810        1.20820
C          2.50467       -3.64299        0.71243
C          2.51524       -3.86171       -0.65110
C          2.27616       -2.81738       -1.52163
C          2.01485       -1.55537       -1.02207
H          1.83309       -0.72377       -1.68453
H          2.25778       -2.19545        2.26997
C          1.17203        0.37047        2.70279
C          0.02315       -0.54349        3.09553
C         -1.34470       -0.05665        2.64695
P         -1.66394       -0.20865        0.84385
C         -3.31896        0.40507        0.52134
C         -3.59940        1.73400        0.74150
C         -4.86943        2.21916        0.48420
C         -5.84778        1.36854        0.00816
C         -5.56040        0.03585       -0.21230
C         -4.28969       -0.44608        0.04512
H         -4.04782       -1.48217       -0.12854
H         -2.82181        2.38813        1.10370
C         -1.46834       -1.88688        0.22710
C         -1.39856       -2.06185       -1.13658
C         -1.22276       -3.32735       -1.66425
C         -1.12276       -4.41353       -0.81808
C         -1.20931       -4.23706        0.54890
C         -1.38763       -2.96951        1.07292
H         -1.47892       -2.82741        2.13696
H         -1.48424       -1.19968       -1.77931
Pd        -0.12945        0.91293       -0.48261
Cl         1.39510        1.65353       -1.96243
Cl        -1.80272        1.25848       -1.94757
H         -2.14571       -0.61666        3.13590
H         -1.48694        0.99186        2.91478
H          0.20273       -1.54784        2.69450
H          0.01951       -0.66676        4.18987
H          2.08804        0.11178        3.23972
H          0.94365        1.40803        2.95296
H          3.74022        4.70421        0.76215
H          6.20201        1.41033       -0.35560
H          2.69848       -4.45745        1.39095
H          2.28853       -2.98427       -2.58609
H         -5.09218        3.26024        0.65084
H         -6.32250       -0.62712       -0.58769
H         -1.15959       -3.46288       -2.73135
H         -1.13751       -5.08652        1.20811
H          5.90878        3.82641        0.00254
H          2.71366       -4.84851       -1.03646
H         -6.83657        1.74632       -0.19501
H         -0.97963       -5.40114       -1.22524
