45
-71.81616120
C          0.43813        1.81592        3.02054
P         -0.17776        0.84917        1.60012
P         -0.06105        0.74138       -1.55222
C          0.71727        1.70647       -2.89060
Cl         2.94664        0.06598        1.80500
H         -0.36739        2.00866        3.72327
H         -0.00507        1.90477       -3.67713
Cl         2.97759       -0.34924       -1.46299
C         -1.39358        1.76535        0.63700
C         -1.34449        1.71461       -0.73847
C         -2.28463        2.38854       -1.49125
C         -3.27991        3.11311       -0.85930
C         -3.33292        3.15738        0.52041
C         -2.38898        2.47938        1.27168
H         -2.23743        2.34130       -2.56729
H         -4.01552        3.64001       -1.44451
H         -4.11077        3.71758        1.01267
H         -2.42614        2.49656        2.34894
Pd         1.50854        0.30524        0.10270
H          1.54989        1.14842       -3.30939
H          0.83832        2.76384        2.67236
H          1.08577        2.65051       -2.49947
C         -1.65834       -3.25733       -3.00961
C         -2.53661       -2.21830       -2.77089
C         -2.05592       -0.99308       -2.34588
C         -0.70313       -0.81720       -2.16324
C          0.17453       -1.84962       -2.39963
C         -0.30178       -3.07533       -2.82568
H         -2.03266       -4.21266       -3.33953
H         -3.59526       -2.36196       -2.91197
H         -2.73045       -0.17749       -2.14265
H          1.22769       -1.68837       -2.23374
H          0.38399       -3.88611       -3.00884
C         -1.92466       -3.21596        2.64423
C         -1.42868       -2.42270        3.66088
C         -0.89341       -1.18030        3.37097
C         -0.86061       -0.74190        2.06693
C         -1.35304       -1.52870        1.05276
C         -1.88725       -2.77146        1.33756
H         -2.33923       -4.18462        2.87104
H         -1.45611       -2.77196        4.68000
H         -0.49928       -0.55500        4.15517
H         -1.30326       -1.16917        0.03988
H         -2.26756       -3.38925        0.54080
H          1.22700        1.26697        3.52683
