111
-148.55734223
P         -2.41037       -2.45124       -0.07959
P         -0.08268       -0.33155       -0.46035
C         -1.66831       -2.21577       -1.71273
C         -0.69580       -1.25543       -1.88327
C         -2.42935       -4.22946        0.42316
C         -1.43184       -4.47611        1.53413
C         -2.10201       -2.95964       -2.79114
H         -2.85914       -3.71343       -2.64693
C         -1.56706       -2.72721       -4.04657
H         -1.90532       -3.30609       -4.89040
C         -0.60798       -1.74774       -4.22041
H         -0.19729       -1.56073       -5.19896
C         -0.17255       -1.00797       -3.13551
H          0.57140       -0.23579       -3.25608
Pd        -1.39300       -0.95328        1.35633
Cl        -2.98863       -1.52055        2.83083
Cl        -0.37714        0.60730        2.60923
C         -3.89850       -4.46549        0.82150
C         -4.22964       -2.09355       -0.08251
H         -1.66495       -3.85982        2.40483
H         -1.44123       -5.52042        1.85534
H         -0.41579       -4.22614        1.21848
H         -3.99583       -4.32205        1.90647
H         -4.18305       -5.51229        0.63568
H         -4.41654       -1.48141        0.80960
C         -4.85880       -3.48884        0.08565
C         -4.66130       -1.35499       -1.33219
H         -2.17260       -4.80968       -0.47276
H         -5.09987       -3.89105       -0.90784
H         -5.82141       -3.41275        0.61374
H         -5.72460       -1.10615       -1.30241
H         -4.09824       -0.42817       -1.45956
H         -4.49156       -1.96214       -2.22244
C         -0.91243        4.12744       -0.81116
C          0.38768        3.63234       -1.08917
C          0.61098        2.27150       -0.96351
C         -0.41223        1.41373       -0.65688
C         -1.69363        1.87222       -0.49925
C         -1.98409        3.22295       -0.59697
O         -1.13433        5.52700       -0.71377
C          1.55778        4.54526       -1.48862
H          1.59786        1.86122       -1.08973
H         -2.46634        1.15752       -0.27467
C         -3.43700        3.68851       -0.41442
C          4.37114       -1.01441        0.29403
C          3.59823       -0.24266        1.19726
C          2.24454       -0.10499        0.94635
C          1.66645       -0.63122       -0.17851
C          2.43016       -1.29798       -1.10158
C          3.79100       -1.47503       -0.91521
O          5.71371       -1.35098        0.61323
C          4.19490        0.42310        2.44724
H          1.60687        0.40677        1.64432
H          1.94571       -1.68794       -1.97785
C          4.61288       -2.17066       -2.01237
C          2.29569        5.01086       -0.22429
C          2.55926        3.78538       -2.38869
C          1.06352        5.75996       -2.29484
C         -4.42623        2.59189       -0.87043
C         -3.69015        3.98208        1.07234
C         -3.72970        4.93876       -1.26323
C         -0.93026        6.05758        0.58987
H          2.67954        4.15693        0.33284
H          3.13781        5.65417       -0.47808
H          1.63560        5.56657        0.43702
H          2.04939        3.32948       -3.23703
H          3.31886        4.46224       -2.77916
H          3.08149        3.00248       -1.84053
H          1.89904        6.37312       -2.63162
H          0.50499        5.43610       -3.17241
H          0.41040        6.39296       -1.69955
H         -5.44874        2.96878       -0.87027
H         -4.19405        2.25515       -1.88046
H         -4.40502        1.73047       -0.20453
H         -4.71939        4.29893        1.23849
H         -3.50825        3.09304        1.67593
H         -3.03355        4.76787        1.43714
H         -4.77583        5.23244       -1.18054
H         -3.12502        5.78465       -0.94606
H         -3.51269        4.74837       -2.31376
H         -0.64292        5.26509        1.28215
H         -0.14790        6.81563        0.55860
H         -1.84745        6.53141        0.93922
C          5.85086       -2.56387        1.34291
C          3.40825        1.70371        2.81056
C          4.11281       -0.55273        3.63069
C          5.65463        0.84825        2.20648
C          3.98237       -1.93104       -3.40355
C          6.04606       -1.61092       -2.06869
C          4.64465       -3.68272       -1.74401
H          3.33368        2.36876        1.95099
H          2.40107        1.47533        3.15573
H          3.90466        2.24840        3.61326
H          4.51994       -0.10362        4.53617
H          3.07784       -0.83125        3.82797
H          4.66812       -1.46552        3.42900
H          6.05671        1.37612        3.07087
H          6.29327       -0.01145        2.02017
H          5.72394        1.50905        1.34300
H          3.82612       -0.86714       -3.58055
H          4.63174       -2.30938       -4.19272
H          3.02563       -2.44100       -3.50648
H          6.58816       -1.81467       -1.14862
H          6.60917       -2.05684       -2.88817
H          6.03075       -0.53145       -2.21542
H          5.10250       -3.90320       -0.78283
H          5.21217       -4.20409       -2.51445
H          3.63513       -4.09301       -1.73221
H          6.32405       -2.36183        2.30365
H          4.87471       -3.02190        1.50718
H          6.48780       -3.25320        0.78887
