115
-277.94104188
P         -1.59599       -0.71521       -0.07363
P          2.06080        0.32341        0.01605
C         -2.13761       -2.41999        0.10846
C         -1.22146       -3.40425        0.41040
H         -0.23254       -3.14124        0.74780
C         -1.54741       -4.72671        0.19239
H         -0.81160       -5.50633        0.31601
C         -2.77728       -5.06094       -0.35058
C         -3.73328       -4.07139       -0.53052
H         -4.68207       -4.33407       -0.97003
C         -3.41565       -2.74790       -0.29360
H         -4.12219       -1.96613       -0.52542
C         -2.94246        0.32340        0.53917
C         -3.63298        1.11151       -0.35296
H         -3.35260        1.11611       -1.39347
C         -4.68439        1.88931        0.08490
H         -5.22972        2.51915       -0.60012
C         -5.05569        1.87669        1.41592
C         -4.35619        1.08644        2.30555
H         -4.64856        1.09405        3.34385
C         -3.30549        0.31006        1.86517
H         -2.76501       -0.31217        2.55978
C         -1.30227       -0.33560       -1.83825
C         -0.77583        0.93239       -1.98801
H         -0.53856        1.50514       -1.10991
C         -0.39420        1.42254       -3.23577
C         -0.76714        0.69064       -4.35659
H         -0.52191        1.06435       -5.33665
C         -1.29517       -0.57737       -4.21845
H         -1.45726       -1.17923       -5.09666
C         -1.45915       -1.16066       -2.96189
C          1.87922       -0.31735       -1.68394
C          1.36161       -1.60087       -1.69953
H          1.05890       -2.05691       -0.77147
C          1.07598       -2.25340       -2.89883
C          1.53735       -1.67229       -4.07425
H          1.36502       -2.17301       -5.01232
C          2.05595       -0.39316       -4.06697
H          2.28546        0.08847       -5.00235
C          2.12461        0.35217       -2.89033
C         -1.44794       -2.67244       -2.90224
H         -2.06458       -3.07235       -3.71572
H         -1.96515       -3.00579       -2.00661
C         -0.00658       -3.29909       -2.95613
H          0.13555       -4.02151       -2.14552
H          0.11604       -3.89111       -3.87013
C          0.69434        2.45834       -3.33141
H          0.46313        3.28971       -2.65693
H          0.67398        2.90567       -4.33140
C          2.11730        1.85910       -3.02467
H          2.82779        2.15240       -3.80550
H          2.52062        2.29756       -2.11545
C          1.98611        2.11627        0.17381
C          0.78618        2.75222        0.40999
C          3.12055        2.84634       -0.11003
C          0.68912        4.11334        0.21448
C          3.02173        4.20934       -0.30691
C          1.79243        4.83852       -0.20707
C          3.60413       -0.27773        0.73114
C          4.14432       -1.44130        0.23457
C          4.24563        0.40630        1.73790
C          5.33220       -1.92113        0.74433
H          3.64392       -1.96688       -0.56201
C          5.43406       -0.07452        2.24946
H          3.81101        1.31141        2.13096
C          5.98281       -1.24194        1.75654
H          5.77745       -2.82224        0.35409
H          5.95789        0.45132        3.03214
Pd         0.27599       -0.44400        1.33052
Cl        -1.12885       -1.47558        2.76057
Cl         1.66971        0.18103        2.98132
H          3.86881        4.78386       -0.64810
H          4.05874        2.33923       -0.27369
H         -0.26426        4.61178        0.28820
H         -0.08291        2.18722        0.70341
C         -4.36156       -6.85129       -1.20211
C         -2.88328       -6.38593       -1.06430
C         -2.18141       -6.18113       -2.44545
F         -4.91368       -6.81987        0.01980
F         -5.02260       -6.01885       -2.01821
F         -4.38469       -8.10203       -1.68827
F         -2.21317       -7.32632       -0.39398
F         -2.29657       -7.29265       -3.18429
F         -2.73566       -5.13151       -3.06736
F         -0.89184       -5.90902       -2.20330
C         -5.66501        4.21925        1.99408
C         -6.17614        2.75268        1.91583
C         -7.42452        2.60599        0.99644
F         -4.64328        4.24129        2.86354
F         -5.23668        4.60225        0.78212
F         -6.65619        5.01626        2.42117
F         -6.53503        2.38000        3.14749
F         -7.15284        3.11271       -0.21428
F         -7.69587        1.29656        0.88951
F         -8.46178        3.24935        1.55414
C          7.29564       -3.24962        2.52050
C          7.32092       -1.71303        2.26663
C          8.41246       -1.29997        1.23797
F          6.23377       -3.51460        3.29615
F          7.17631       -3.89662        1.35281
F          8.42655       -3.61197        3.14540
F          7.60601       -1.11517        3.42671
F          8.40486        0.03941        1.16211
F          9.61028       -1.73511        1.65642
F          8.10985       -1.82182        0.04016
C          1.09256        5.86017       -2.32051
C          1.61259        6.17401       -0.88282
C          0.65487        7.09826       -0.07783
F          0.98239        6.99692       -3.02110
F          1.97877        5.03529       -2.89582
F         -0.08677        5.23189       -2.23486
F          2.78791        6.79773       -0.99638
F          0.60927        8.30254       -0.66879
F         -0.56862        6.55300       -0.03040
F          1.15023        7.21113        1.16389
