72
-98.10112846
Fe         0.00857        2.83948        0.07137
P          1.86177       -0.02167       -0.05659
P         -1.81335       -0.03763        0.03604
C          1.42184        1.57389        0.72214
C          0.40834        1.75817        1.74597
C          0.35963        3.16864        2.08820
C          1.34776        3.85831        1.27847
C          2.01300        2.87248        0.44273
C         -1.41016        1.60810       -0.67415
C         -2.00908        2.87973       -0.29519
C         -1.36647        3.92985       -1.06536
C         -0.37963        3.30751       -1.92681
C         -0.42683        1.87391       -1.70718
C          3.27945       -0.72280        0.91510
C          4.47069        0.05105        0.32668
C          2.80151        0.25548       -1.63967
C          4.27425        0.37976       -1.18011
C         -3.11974       -0.79958       -1.04827
C         -4.32674        0.09094       -0.70630
C         -2.95642        0.26555        1.47840
C         -4.32029        0.52260        0.79129
H         -0.19845        0.96570        2.18528
H         -0.29706        3.62628        2.83133
H          1.56929        4.92740        1.30887
H          2.81647        3.06566       -0.27123
H         -2.79039        3.02323        0.45328
H          0.18460        1.12752       -2.20888
Cl         1.59940       -3.09533       -0.22418
Cl        -1.54893       -3.06364        0.36504
Pd         0.03558       -1.49485        0.02758
H          3.35068       -1.78632        0.66035
C          3.14092       -0.54892        2.42373
H          2.44294        1.19689       -2.07240
C          2.61353       -0.89217       -2.63318
H          5.40733       -0.50394        0.49121
H          4.58528        0.98571        0.89485
H          4.66422        1.38309       -1.40718
H          4.88826       -0.30455       -1.78189
H         -1.59033        4.99722       -1.00949
H          0.26441        3.82386       -2.64185
H          4.09758       -0.80252        2.90124
H          3.41054       -0.84565       -3.38857
H         -3.29579       -1.81656       -0.67857
C         -2.75539       -0.83932       -2.53623
H         -2.59196        1.16057        1.99659
C         -3.03172       -0.90758        2.45313
H         -5.26777       -0.41678       -0.96951
H         -4.28633        0.98198       -1.35012
H         -4.60978        1.57940        0.88651
H         -5.09786       -0.03221        1.33497
H         -3.66854       -0.70795       -3.13337
H         -3.31506       -1.80852        1.89351
C          2.02588       -1.38411        3.02358
H          1.96000       -1.26926        4.10791
H          1.06433       -1.09426        2.60521
H          2.16475       -2.44540        2.80912
C          1.26487       -0.90421       -3.33066
H          1.12054       -0.00545       -3.93329
H          1.15664       -1.76337       -3.99667
H          0.45063       -0.94808       -2.60958
C         -2.06525       -2.13306       -2.94561
H         -1.18807       -2.33244       -2.33057
H         -2.73109       -2.98919       -2.82133
H         -1.74373       -2.11647       -3.98934
C         -1.75265       -1.15705        3.22982
H         -1.86437       -1.96767        3.95361
H         -0.94352       -1.43793        2.55886
H         -1.43797       -0.26756        3.77858
H          2.98126        0.51454        2.64475
H          2.77708       -1.83895       -2.10189
H         -2.13116        0.03102       -2.77481
H         -3.85904       -0.73274        3.15511
