111
-148.55783604
P         -2.53659       -1.88139       -1.22592
P          0.19714       -0.47789       -0.47045
C         -1.32099       -1.52418       -2.52253
C         -0.10876       -0.96432       -2.18084
C         -3.42504       -3.47440       -1.54071
C         -2.92941       -4.57652       -0.63013
C         -1.60316       -1.80250       -3.84471
H         -2.56016       -2.22165       -4.10893
C         -0.66298       -1.52631       -4.82242
H         -0.88234       -1.74316       -5.85513
C          0.55429       -0.97150       -4.47685
H          1.28537       -0.75442       -5.23816
C          0.83018       -0.68531       -3.15208
H          1.76898       -0.23686       -2.86871
Pd        -1.41503       -1.58766        0.76913
Cl        -3.25254       -2.37660        1.79222
Cl        -0.27089       -1.26591        2.67212
C         -4.90157       -3.08597       -1.33954
C         -3.96601       -0.70583       -1.19416
H         -3.08483       -4.31416        0.41716
H         -3.45676       -5.51512       -0.81580
H         -1.86020       -4.75433       -0.76791
H         -5.17958       -3.28837       -0.29597
H         -5.55456       -3.72846       -1.94969
H         -4.09589       -0.41522       -0.14295
C         -5.14522       -1.58247       -1.65635
C         -3.70531        0.50862       -2.05856
H         -3.23954       -3.73218       -2.59111
H         -5.27825       -1.45361       -2.73933
H         -6.08381       -1.23244       -1.20042
H         -3.50745        0.21436       -3.09090
H         -4.56152        1.18706       -2.06392
H         -2.83610        1.06589       -1.70396
C         -1.19293        3.81893        0.13271
C         -0.88133        3.35848       -1.17233
C         -0.43680        2.05558       -1.32063
C         -0.35670        1.21065       -0.24549
C         -0.74052        1.62412        1.00196
C         -1.21000        2.90719        1.21902
O         -1.45470        5.19718        0.35454
C         -0.99389        4.25821       -2.41280
H         -0.14426        1.68015       -2.28520
H         -0.66628        0.91798        1.81064
C         -1.71892        3.28309        2.61933
C          4.55111       -0.74433        0.82849
C          4.11743        0.32985        0.00990
C          2.78081        0.38052       -0.34994
C          1.91523       -0.62275        0.00049
C          2.35337       -1.71826        0.69636
C          3.67403       -1.82556        1.10044
O          5.84787       -0.71861        1.40743
C          5.05786        1.44985       -0.46253
H          2.38974        1.22140       -0.89697
H          1.63649       -2.48106        0.94640
C          4.11937       -3.07888        1.86986
C         -2.16409        5.24823       -2.27049
C          0.32559        5.02023       -2.60806
C         -1.26691        3.41690       -3.68073
C         -0.54401        3.79231        3.46754
C         -2.82329        4.35260        2.54154
C         -2.33719        2.05020        3.31952
C         -0.30356        5.95680        0.70111
H         -2.28498        5.84487       -3.17429
H         -3.09692        4.71562       -2.08804
H         -2.00418        5.93445       -1.44242
H          0.28192        5.65675       -3.49146
H          0.54696        5.65108       -1.75072
H          1.15651        4.32601       -2.73227
H         -0.41334        2.79359       -3.94324
H         -2.13387        2.77213       -3.54066
H         -1.46616        4.06170       -4.53638
H         -0.08630        4.67147        3.02017
H         -0.87347        4.05763        4.47175
H          0.22648        3.02673        3.55620
H         -3.22759        4.57112        3.52959
H         -2.44616        5.28414        2.12738
H         -3.64167        4.01288        1.90759
H         -1.58377        1.30322        3.56440
H         -2.81797        2.33646        4.25450
H         -3.08970        1.58117        2.68609
H         -0.43207        6.38620        1.69444
H          0.58639        5.32621        0.68985
H         -0.17945        6.77423       -0.00908
C          5.90590       -0.06334        2.66844
C          5.03596        2.59699        0.55906
C          6.49476        0.92915       -0.64779
C          4.60076        2.00158       -1.83266
C          5.59429       -3.41343        1.58261
C          3.90959       -2.84870        3.37436
C          3.28730       -4.30877        1.44080
H          4.02707        2.99375        0.67089
H          5.36875        2.26016        1.53789
H          5.68659        3.41254        0.24438
H          7.14575        1.70769       -1.04474
H          6.92071        0.59381        0.29435
H          6.51141        0.08763       -1.33956
H          5.33324        2.70349       -2.23070
H          4.48362        1.19463       -2.55558
H          3.65473        2.53587       -1.75844
H          5.75866       -3.53488        0.51247
H          6.25603       -2.62585        1.93409
H          5.89026       -4.33751        2.07854
H          4.49732       -2.00606        3.73015
H          2.86245       -2.63532        3.58804
H          4.19968       -3.72814        3.94861
H          2.24948       -4.22444        1.75970
H          3.68510       -5.21962        1.88768
H          3.30623       -4.43131        0.35820
H          4.91573        0.28972        2.95939
H          6.28147       -0.75477        3.42259
H          6.59121        0.78213        2.61133
