111
-148.55692389
P         -1.67672       -2.71269        0.08565
P         -0.47267        0.13430       -0.55081
C         -1.68831       -2.09185       -1.61986
C         -1.22118       -0.82166       -1.88484
C         -0.55280       -4.17035        0.25935
C          0.63822       -3.82758        1.12889
C         -2.13668       -2.88875       -2.65357
H         -2.46699       -3.89333       -2.44559
C         -2.13813       -2.40024       -3.94879
H         -2.49199       -3.02047       -4.75608
C         -1.68150       -1.12217       -4.20914
H         -1.67811       -0.74433       -5.21829
C         -1.21180       -0.33326       -3.17439
H         -0.82260        0.65486       -3.36345
Pd        -1.29447       -0.84434        1.37454
Cl        -1.74568       -2.01672        3.23056
Cl        -0.84344        1.07325        2.46196
C         -1.47158       -5.25972        0.84871
C         -3.27917       -3.46740        0.62218
H          1.29507       -4.68983        1.26526
H          1.22898       -3.01844        0.69542
H          0.31189       -3.49834        2.11744
H         -1.31195       -5.30286        1.93485
H         -1.18147       -6.25141        0.47000
H         -3.41760       -3.15411        1.66573
C         -2.97418       -4.97494        0.56298
C         -4.45059       -3.01450       -0.22313
H         -0.23646       -4.43598       -0.75793
H         -3.23867       -5.35240       -0.43436
H         -3.61933       -5.52334        1.26643
H         -5.38811       -3.44965        0.13040
H         -4.55383       -1.92708       -0.20565
H         -4.32417       -3.31392       -1.26391
C         -0.83495        4.65923       -0.89238
C          0.43747        4.06824       -0.68598
C          0.50943        2.68934       -0.58592
C         -0.60342        1.90666       -0.74900
C         -1.81738        2.46628       -1.05009
C         -1.95855        3.83949       -1.17265
O         -0.99250        6.06599       -0.77732
C          1.72337        4.89334       -0.52178
H          1.44289        2.20552       -0.35917
H         -2.66167        1.81037       -1.17729
C         -3.32525        4.41829       -1.57123
C          3.70192       -1.51653        0.20635
C          3.14065       -0.57466        1.10921
C          1.87480       -0.08582        0.83881
C          1.21224       -0.42678       -0.31026
C          1.79735       -1.24300       -1.24186
C          3.06020       -1.77240       -1.03497
O          4.84730       -2.26389        0.58347
C          3.83891       -0.07390        2.38383
H          1.36170        0.53305        1.55544
H          1.24178       -1.48969       -2.13019
C          3.67383       -2.61854       -2.16235
C          1.65611        6.20012       -1.33264
C          1.93763        5.20290        0.96773
C          2.94667        4.10477       -1.04298
C         -4.08857        3.43195       -2.48438
C         -4.16160        4.66424       -0.30641
C         -3.16459        5.72823       -2.36417
C         -1.30455        6.50513        0.53888
H          0.86475        6.85188       -0.97142
H          2.59336        6.75190       -1.26493
H          1.46133        5.98971       -2.38371
H          2.85374        5.77269        1.12093
H          1.11014        5.78037        1.37306
H          2.01178        4.28188        1.54541
H          2.77931        3.76016       -2.06309
H          3.83883        4.73060       -1.04317
H          3.16515        3.23872       -0.42049
H         -4.99845        3.88924       -2.87251
H         -3.47402        3.13595       -3.33424
H         -4.38728        2.53305       -1.94730
H         -4.30206        3.73709        0.24873
H         -3.67426        5.37527        0.35629
H         -5.14519        5.05931       -0.55918
H         -2.70537        6.50536       -1.75837
H         -2.53552        5.57194       -3.23984
H         -4.13045        6.10252       -2.70254
H         -0.52680        7.18086        0.89415
H         -2.24917        7.04869        0.52851
H         -1.38203        5.65271        1.21507
C          4.52259       -3.45859        1.27613
C          3.70947        1.46341        2.46734
C          3.16306       -0.70216        3.61453
C          5.34196       -0.40036        2.39626
C          2.95908       -3.97904       -2.22372
C          3.48644       -1.88983       -3.51168
C          5.18561       -2.83524       -1.97627
H          4.12143        1.93251        1.57451
H          2.67182        1.77774        2.56555
H          4.24922        1.85240        3.33028
H          3.62127       -0.34358        4.53575
H          2.10314       -0.45168        3.64789
H          3.24620       -1.78706        3.59913
H          5.51211       -1.47327        2.44233
H          5.82429       -0.02404        1.49480
H          5.83425        0.04844        3.25869
H          1.89203       -3.85019       -2.40302
H          3.36209       -4.59480       -3.02730
H          3.07384       -4.52754       -1.29091
H          2.43547       -1.79860       -3.78085
H          3.91221       -0.88770       -3.46945
H          3.98109       -2.43159       -4.31748
H          5.39375       -3.43343       -1.09258
H          5.69897       -1.88118       -1.86179
H          5.61653       -3.35301       -2.83288
H          3.88827       -3.23512        2.13228
H          3.99153       -4.14233        0.61645
H          5.44055       -3.93468        1.62131
