111
-148.55603859
P         -2.68061       -1.87455       -0.37654
P          0.17529       -0.51742       -0.46223
C         -1.82609       -1.66122       -1.96590
C         -0.55871       -1.12066       -1.99131
C         -3.79723       -3.35220       -0.43377
C         -3.50733       -4.31870        0.69295
C         -2.43830       -2.02598       -3.14856
H         -3.43725       -2.42943       -3.13016
C         -1.77368       -1.85569       -4.35093
H         -2.25191       -2.14091       -5.27375
C         -0.50114       -1.31777       -4.37086
H          0.01437       -1.18169       -5.30729
C          0.10652       -0.94318       -3.18620
H          1.09090       -0.50192       -3.18379
Pd        -1.03581       -1.54969        1.22070
Cl        -2.46923       -2.25018        2.79341
Cl         0.64105       -1.13921        2.65672
C         -5.20509       -2.72251       -0.37103
C         -3.90925       -0.53749       -0.01762
H         -4.13599       -5.21003        0.62947
H         -2.46280       -4.63857        0.68433
H         -3.70116       -3.85094        1.65888
H         -5.88949       -3.40643        0.15188
H         -5.61341       -2.61595       -1.38681
H         -3.53709        0.01179        0.85838
C         -5.18711       -1.33100        0.32330
C         -4.05988        0.39369       -1.20086
H         -3.62429       -3.84238       -1.40104
H         -6.07212       -0.74338        0.03841
H         -5.25959       -1.46867        1.41233
H         -4.40480       -0.15356       -2.08010
H         -4.78284        1.18742       -0.99808
H         -3.10834        0.86265       -1.45879
C         -1.46763        3.67090        0.23369
C         -1.00301        2.90230        1.33375
C         -0.49699        1.64043        1.07945
C         -0.38988        1.16239       -0.19928
C         -0.70966        1.95199       -1.27210
C         -1.20773        3.23160       -1.09240
O         -2.26557        4.82201        0.45809
C         -1.04078        3.37545        2.79557
H         -0.19391        0.99812        1.88851
H         -0.58382        1.54990       -2.26290
C         -1.43684        4.09375       -2.34476
C          4.72436       -0.60405       -0.38760
C          4.04199        0.53992       -0.87473
C          2.65735        0.52828       -0.86687
C          1.96093       -0.58300       -0.46929
C          2.61451       -1.72904       -0.10102
C          3.99890       -1.78461       -0.08268
O          6.12715       -0.55448       -0.17057
C          4.77327        1.79680       -1.37173
H          2.09789        1.40047       -1.15859
H          2.02311       -2.57920        0.19249
C          4.68796       -3.10198        0.30636
C         -1.29506        4.88771        2.91574
C         -2.13934        2.60620        3.54889
C          0.32344        3.09039        3.46207
C         -0.18319        4.02622       -3.24483
C         -2.64746        3.55396       -3.12461
C         -1.66562        5.57605       -2.00236
C         -3.65055        4.52280        0.51421
H         -1.22540        5.21672        3.95230
H         -0.56608        5.44758        2.33095
H         -2.28601        5.15054        2.55318
H         -3.11892        2.79150        3.11229
H         -1.95807        1.53231        3.51287
H         -2.17592        2.90490        4.59609
H          0.52885        2.02310        3.52451
H          1.13127        3.55660        2.89875
H          0.34962        3.48504        4.47739
H         -0.29140        4.67802       -4.11136
H          0.70205        4.34331       -2.69424
H         -0.00492        3.01851       -3.61649
H         -2.82385        4.14193       -4.02492
H         -2.48759        2.51948       -3.42709
H         -3.55171        3.58764       -2.51974
H         -2.59084        5.71459       -1.44808
H         -0.84961        5.95948       -1.39083
H         -1.72846        6.18271       -2.90545
H         -4.20880        5.43861        0.70955
H         -3.97970        4.09527       -0.43154
H         -3.84579        3.80501        1.30944
C          6.49633       -0.11341        1.13015
C          6.12171        1.43497       -2.02008
C          3.93619        2.52412       -2.44926
C          4.99151        2.75698       -0.19248
C          6.04455       -3.25290       -0.40580
C          4.88040       -3.14131        1.83005
C          3.82471       -4.31383       -0.11229
H          6.80091        0.98593       -1.29979
H          5.97804        0.72306       -2.83218
H          6.61091        2.31970       -2.42683
H          3.64969        1.83841       -3.24627
H          3.03098        2.96091       -2.03011
H          4.50541        3.33848       -2.89695
H          5.49424        3.66734       -0.51795
H          4.03890        3.03888        0.25566
H          5.59847        2.29723        0.58366
H          6.74300       -2.47858       -0.09888
H          6.50104       -4.21612       -0.17933
H          5.92074       -3.18168       -1.48588
H          5.50524       -2.31904        2.17004
H          3.92117       -3.06057        2.34094
H          5.35172       -4.07339        2.14059
H          2.90669       -4.37561        0.47009
H          4.36567       -5.24671        0.04499
H          3.55957       -4.25467       -1.16759
H          5.60783        0.10878        1.72259
H          7.08052       -0.88766        1.62718
H          7.11444        0.78076        1.05161
