171
-217.84475371
P         -1.59329        0.37219       -0.52853
P          1.58088       -0.34809       -0.23089
C         -0.80647        1.36124       -1.80516
C          1.04203       -1.28993       -1.66082
C          0.10290        0.79187       -2.68958
C          0.78392        1.63109       -3.59333
C          0.49261        2.98473       -3.61200
C         -0.44345        3.52259       -2.75483
C         -1.08203        2.70647       -1.84194
C          1.30511       -2.63786       -1.68527
C          0.86460       -3.41303       -2.73977
C          0.14174       -2.83030       -3.75871
C         -0.13536       -1.47317       -3.75167
C          0.34155       -0.67731       -2.69284
Cl         1.29569        0.30365        2.95606
Cl        -1.88231       -0.35748        2.69093
C         -0.90455       -0.87228       -4.87528
C          1.81794        1.09971       -4.52369
H         -0.66770        4.57626       -2.78842
H         -1.79950        3.12206       -1.15298
H          1.86043       -3.08627       -0.87740
H          1.08323       -4.46808       -2.76422
H          1.01202        3.62021       -4.30944
H         -0.21386       -3.43250       -4.57771
C         -3.69979       -3.39078       -1.90215
C         -2.75935       -3.47254       -0.88205
C         -2.10436       -2.30690       -0.50954
C         -2.38804       -1.11617       -1.13047
C         -3.32200       -1.05018       -2.13528
C         -4.00481       -2.19211       -2.53827
H         -4.21647       -4.28236       -2.20024
H         -1.37545       -2.32489        0.28266
H         -3.53134       -0.09768       -2.59287
C         -4.48645        2.77607        2.01106
C         -3.13887        3.11456        2.02269
C         -2.28389        2.39640        1.19791
C         -2.75878        1.37161        0.41649
C         -4.09217        1.04486        0.42443
C         -4.98754        1.75014        1.21925
H         -5.16740        3.30804        2.64835
H         -1.22890        2.61385        1.19394
H         -4.42366        0.21712       -0.17658
C          4.22000       -2.89243        2.44967
C          2.86182       -3.17955        2.38363
C          2.07329       -2.40814        1.53908
C          2.62470       -1.37793        0.81762
C          3.96501       -1.09844        0.91049
C          4.79476       -1.85494        1.72538
H          4.83868       -3.49253        3.08997
H          1.01656       -2.59273        1.45304
H          4.36914       -0.27332        0.35133
C          3.90436        3.41251       -1.17558
C          2.82137        3.49599       -0.30829
C          2.09587        2.33718       -0.06653
C          2.45651        1.15316       -0.65940
C          3.52841        1.08631       -1.51498
C          4.27948        2.22319       -1.78916
H          4.48779        4.29235       -1.37020
H          1.24821        2.35167        0.59644
H          3.77950        0.13532       -1.95354
Pd        -0.16437       -0.03410        1.28267
C         -0.97856       -5.17145       -0.42329
C         -2.43980       -4.78075       -0.14462
C         -3.35180       -5.93463       -0.60339
C         -2.64441       -4.57376        1.36886
H         -0.70495       -6.07879        0.11490
H         -0.82793       -5.35178       -1.48709
H         -0.29571       -4.37961       -0.11942
H         -4.40132       -5.69631       -0.43139
H         -3.21376       -6.14765       -1.66323
H         -3.12532       -6.84780       -0.05306
H         -1.98539       -3.79955        1.75895
H         -3.67042       -4.27346        1.58013
H         -2.44069       -5.49178        1.91971
C         -5.76366       -3.44937       -3.88903
C         -5.09346       -2.08806       -3.61830
C         -4.47169       -1.58542       -4.93220
C         -6.17736       -1.10005       -3.15015
H         -5.03775       -4.18103       -4.24334
H         -6.23881       -3.83902       -2.98889
H         -6.53488       -3.35479       -4.65343
H         -3.71868       -2.28606       -5.29084
H         -5.23014       -1.48348       -5.70826
H         -3.99848       -0.61335       -4.79959
H         -6.62059       -1.43419       -2.21244
H         -5.76375       -0.10463       -2.99317
H         -6.97469       -1.01617       -3.88840
C         -1.53734        3.53200        3.89964
C         -2.55802        4.19017        2.95107
C         -3.65194        4.86473        3.80042
C         -1.86002        5.27038        2.10653
H         -0.71798        3.07502        3.34641
H         -1.11039        4.26412        4.58462
H         -2.01206        2.74968        4.49132
H         -4.39540        5.35027        3.16851
H         -4.15809        4.13881        4.43648
H         -3.22166        5.62730        4.44953
H         -1.04256        4.84572        1.52778
H         -2.56111        5.72908        1.40956
H         -1.44716        6.05606        2.73904
C         -7.32271        2.63802        0.95747
C         -6.47892        1.39236        1.28695
C         -6.81248        0.89646        2.70545
C         -6.84174        0.28303        0.28130
H         -8.38666        2.40188        0.96894
H         -7.15289        3.43663        1.67841
H         -7.07283        3.02075       -0.03192
H         -7.86236        0.61491        2.78442
H         -6.20813        0.02577        2.95941
H         -6.61573        1.66750        3.44950
H         -6.29693       -0.63653        0.49449
H         -7.90599        0.05212        0.32555
H         -6.61267        0.59511       -0.73698
C          0.73897       -4.37711        3.11554
C          2.27311       -4.30667        3.24404
C          2.61814       -4.05277        4.72368
C          2.86721       -5.65183        2.79127
H          0.44371       -4.60539        2.09288
H          0.33117       -5.15871        3.75631
H          0.27747       -3.43409        3.40848
H          2.17982       -4.81865        5.36325
H          3.69460       -4.05899        4.88923
H          2.23504       -3.08439        5.04510
H          2.46035       -6.47548        3.37770
H          2.63908       -5.83901        1.74201
H          3.95067       -5.66260        2.90516
C          6.44020       -0.05843        2.31244
C          6.28725       -1.50431        1.80337
C          6.91069       -1.62645        0.40045
C          7.04508       -2.44390        2.76038
H          5.96498        0.65228        1.63716
H          5.97901        0.05430        3.29335
H          7.49134        0.21614        2.39875
H          7.97562       -1.39593        0.42473
H          6.79218       -2.63817        0.01307
H          6.43811       -0.94211       -0.30287
H          6.64745       -2.37611        3.77283
H          6.97574       -3.47997        2.42942
H          8.10211       -2.18148        2.80317
C          1.11935        5.32204       -0.32904
C          2.39673        4.81290        0.35715
C          3.49114        5.89092        0.23386
C          2.12343        4.57795        1.85657
H          0.32532        4.57941       -0.26728
H          0.76315        6.24188        0.13436
H          1.30466        5.52360       -1.38382
H          3.66222        6.16417       -0.80701
H          3.20157        6.79781        0.76466
H          4.43184        5.54180        0.65944
H          1.86835        5.51185        2.35714
H          1.29588        3.88791        2.01107
H          3.00261        4.16104        2.34720
C          5.70309        0.80986       -3.35742
C          5.53719        2.17919       -2.66902
C          6.77043        2.43351       -1.78317
C          5.45164        3.26394       -3.75990
H          5.83147        0.01344       -2.62505
H          4.83817        0.57279       -3.97586
H          6.58197        0.80541       -4.00199
H          7.68777        2.39880       -2.37056
H          6.71544        3.41051       -1.30400
H          6.84276        1.68081       -0.99827
H          5.41321        4.26293       -3.32788
H          6.31987        3.22276       -4.41743
H          4.56060        3.13010       -4.37189
H         -1.50459       -0.02730       -4.53442
H          2.72746        1.69797       -4.46797
H         -1.57932       -1.60256       -5.32196
H         -0.23638       -0.51809       -5.66085
H          1.46578        1.12537       -5.55582
H          2.08638        0.07062       -4.28163
