87
-129.18576372
P         -1.72751       -0.38402       -0.07259
P          1.58107        0.32355       -0.18725
C         -1.46860        0.96040       -1.25938
C          1.29729       -0.65645       -1.66701
C         -0.52400        0.92901       -2.28434
C         -0.31755        2.08994       -3.05466
C         -1.07558        3.21941       -2.80056
C         -2.01554        3.23005       -1.79424
C         -2.20069        2.10020       -1.02230
C          2.08893       -1.75170       -1.91177
C          1.89084       -2.50930       -3.04911
C          0.89531       -2.16095       -3.93756
C          0.08337       -1.06244       -3.70775
C          0.29056       -0.28627       -2.54977
Cl         1.46818        1.10978        2.81626
Cl        -1.43979       -0.42765        3.14453
H         -2.59405        4.11863       -1.60129
H         -2.92085        2.11063       -0.22104
H          2.86907       -2.01198       -1.21599
H          2.51009       -3.37050       -3.23943
H         -0.91442        4.10181       -3.39644
H          0.73492       -2.75126       -4.82375
C         -0.80644       -4.59663       -1.50761
C         -0.30377       -4.16216       -0.28887
C         -0.61439       -2.87553        0.13374
C         -1.39055       -2.05071       -0.64794
C         -1.90841       -2.49907       -1.83987
C         -1.61382       -3.77830       -2.27316
H         -0.56136       -5.58690       -1.85193
C          0.58329       -5.03430        0.52750
H         -0.27020       -2.52780        1.09274
H         -2.52163       -1.84006       -2.43362
H         -2.00291       -4.13059       -3.21435
C         -5.94041       -0.12519        1.64280
C         -5.63900       -1.07347        0.68560
C         -4.35648       -1.15599        0.17655
C         -3.38536       -0.29056        0.62472
C         -3.68582        0.65598        1.57706
C         -4.96636        0.74668        2.10880
H         -6.93910       -0.05705        2.03937
H         -6.40207       -1.74910        0.33525
H         -4.10817       -1.89412       -0.56821
H         -2.91446        1.32027        1.93043
C         -5.28461        1.77875        3.13276
C          4.98897       -1.52976        2.20528
C          5.12903       -0.25706        1.68811
C          4.10014        0.30792        0.95872
C          2.94310       -0.40397        0.74698
C          2.80041       -1.67040        1.26490
C          3.81995       -2.25167        2.00807
H          5.78999       -1.97249        2.77241
H          6.03769        0.29753        1.85607
H          4.19135        1.30507        0.56071
H          1.89106       -2.21802        1.08759
C          3.66375       -3.62859        2.55068
C          2.48269        4.61929       -1.35365
C          3.19866        3.58488       -1.92383
C          2.93120        2.27822       -1.55950
C          1.95965        2.02141       -0.62081
C          1.25016        3.04914       -0.04483
C          1.49286        4.36644       -0.41368
H          2.68787        5.63739       -1.63746
H          3.96035        3.79423       -2.65691
H          3.46627        1.45607       -2.00861
H          0.49530        2.83028        0.69139
C          0.72467        5.47625        0.21254
Pd        -0.06477        0.15539        1.47789
C          0.70608        2.13602       -4.13608
C         -0.98805       -0.72841       -4.68665
H          0.23743        2.07083       -5.11870
H          1.27147        3.06810       -4.09528
H          1.42046        1.31703       -4.04691
H         -1.69904       -0.01255       -4.27260
H         -0.56438       -0.29644       -5.59411
H         -1.54769       -1.62090       -4.97029
H          1.62668       -4.90282        0.23730
H          0.49615       -4.79955        1.58931
H          0.32760       -6.08695        0.39896
H         -4.44230        1.92926        3.80965
H         -5.51338        2.73539        2.66101
H         -6.14502        1.48539        3.73578
H          3.85225       -4.37413        1.77692
H          4.35853       -3.81206        3.37139
H          2.65353       -3.78490        2.93182
H          1.17667        5.77338        1.15982
H          0.69436        6.35202       -0.43722
H         -0.30525        5.17525        0.41054
