58
-89.86787419
P          1.61841        0.25959        0.84437
C          2.85851        1.52001        0.51532
C          2.62747        2.81302        0.92696
C          3.55804        3.79926        0.65148
C          4.71049        3.48432       -0.04094
C          4.93296        2.18817       -0.46166
C          4.00105        1.20470       -0.18403
H          4.15391        0.19310       -0.52298
H          1.71525        3.04965        1.45146
C          2.25571       -1.38267        0.48744
C          1.57191       -2.23027       -0.35235
C          2.05713       -3.50156       -0.59619
C          3.22791       -3.91727        0.00559
C          3.90963       -3.06669        0.85336
C          3.41818       -1.79637        1.09764
H          3.93660       -1.12403        1.76311
H          0.65100       -1.90443       -0.80400
C          1.17769        0.31355        2.62228
C          0.17464       -0.76781        2.98720
C         -1.25479       -0.40683        2.62501
P         -1.61342       -0.32020        0.82075
C         -3.20026        0.51142        0.69195
C         -4.32571       -0.19499        0.33458
C         -5.54189        0.45587        0.23258
C         -5.62027        1.81055        0.48937
C         -4.48781        2.51485        0.84826
C         -3.27281        1.86086        0.95062
H         -2.37760        2.39843        1.22176
H         -4.24740       -1.25097        0.13246
C         -1.68731       -1.94950        0.06260
C         -1.51476       -3.10185        0.79589
C         -1.54790       -4.33005        0.16050
C         -1.75432       -4.39687       -1.20348
C         -1.93141       -3.23938       -1.93478
C         -1.89814       -2.01389       -1.29635
H         -2.02474       -1.09656       -1.84935
H         -1.35370       -3.04319        1.85933
Pd        -0.12031        0.76024       -0.60559
Cl         1.34831        1.58529       -2.08836
Cl        -1.88622        1.26721       -1.90564
H         -1.96869       -1.11927        3.04506
H         -1.51312        0.56934        3.04028
H          0.45988       -1.70874        2.49742
H          0.23259       -0.97269        4.06791
H          2.11665        0.19194        3.16792
H          0.79371        1.30664        2.86091
H          3.37971        4.81260        0.97178
H          5.82730        1.94351       -1.01081
H          1.51730       -4.16679       -1.24979
H          4.82200       -3.39139        1.32602
H         -6.42496       -0.09322       -0.05018
H         -4.54811        3.57281        1.04399
H         -1.40948       -5.23427        0.73017
H         -2.09194       -3.28890       -2.99917
H          5.43425        4.25262       -0.25911
H          3.60851       -4.90767       -0.18416
H         -6.56663        2.31976        0.40676
H         -1.77767       -5.35431       -1.69790
