111
-148.55557217
P         -2.54903       -2.02383       -0.95825
P          0.17143       -0.41878       -0.48400
C         -1.38656       -1.77264       -2.32839
C         -0.19565       -1.11296       -2.10890
C         -3.39473       -3.66724       -1.04464
C         -2.86041       -4.61481        0.00710
C         -1.69776       -2.22639       -3.59410
H         -2.63909       -2.72221       -3.76596
C         -0.80840       -2.02716       -4.63605
H         -1.05090       -2.38191       -5.62447
C          0.38685       -1.37144       -4.41187
H          1.07795       -1.21383       -5.22347
C          0.69168       -0.90822       -3.14459
H          1.61294       -0.37929       -2.95566
Pd        -1.34723       -1.45345        0.91843
Cl        -3.10714       -2.08605        2.15811
Cl        -0.05845       -0.84342        2.65757
C         -4.88090       -3.29682       -0.87959
C         -4.01155       -0.89298       -1.01806
H         -3.36300       -5.58393       -0.03597
H         -1.78783       -4.78214       -0.11726
H         -3.01399       -4.20877        1.00804
H         -5.14932       -3.38421        0.18229
H         -5.51860       -4.02310       -1.40617
H         -4.13395       -0.50063        0.00049
C         -5.16889       -1.84745       -1.36611
C         -3.80065        0.23383       -2.00604
H         -3.20868       -4.06333       -2.05093
H         -5.31132       -1.84804       -2.45559
H         -6.11413       -1.47218       -0.94517
H         -3.61189       -0.15854       -3.00701
H         -4.67606        0.88485       -2.06320
H         -2.94156        0.84734       -1.72698
C         -1.18317        3.92511       -0.25431
C         -0.98187        3.32250       -1.52298
C         -0.54778        2.00799       -1.56487
C         -0.38696        1.28202       -0.41432
C         -0.68442        1.82802        0.80582
C         -1.12333        3.13426        0.92116
O         -1.40616        5.32467       -0.16153
C         -1.20132        4.08348       -2.83980
H         -0.32473        1.53098       -2.50273
H         -0.55978        1.20945        1.67728
C         -1.50259        3.66733        2.31119
C          4.50179       -0.81759        0.86509
C          3.77979        0.37325        1.13183
C          2.46487        0.44877        0.70661
C          1.88980       -0.56646       -0.01139
C          2.61276       -1.67806       -0.35697
C          3.93711       -1.81452        0.02784
O          5.77025       -1.02963        1.46764
C          4.37559        1.55723        1.90909
H          1.86048        1.30478        0.94959
H          2.12171       -2.44635       -0.92892
C          4.72916       -3.04556       -0.44041
C         -1.59407        3.11234       -3.97658
C         -2.34805        5.10150       -2.70304
C          0.09819        4.80015       -3.23595
C         -2.08573        2.53236        3.18523
C         -0.24733        4.22310        3.00082
C         -2.58489        4.75753        2.21415
C         -0.21784        6.08885        0.00079
H         -1.86571        3.66204       -4.87749
H         -0.77256        2.44904       -4.24316
H         -2.44926        2.50204       -3.68819
H         -3.26344        4.60698       -2.37965
H         -2.10912        5.87167       -1.97365
H         -2.54734        5.59741       -3.65269
H          0.39860        5.51889       -2.47746
H          0.91143        4.08472       -3.35605
H         -0.02262        5.33569       -4.17727
H         -2.47904        2.92771        4.12135
H         -2.89919        2.02388        2.66834
H         -1.33067        1.79186        3.44438
H         -0.48531        4.61203        3.99049
H          0.50473        3.44310        3.11740
H          0.19811        5.02784        2.42046
H         -3.46197        4.38097        1.68884
H         -2.89818        5.08808        3.20412
H         -2.22355        5.62978        1.67560
H         -0.24486        6.61269        0.95602
H          0.65913        5.44106       -0.03321
H         -0.15217        6.83232       -0.79353
C          5.70653       -1.67533        2.73316
C          5.89230        1.67286        1.67378
C          3.74494        2.88939        1.44064
C          4.08164        1.37592        3.40609
C          4.55183       -4.18244        0.57724
C          4.21858       -3.53013       -1.81668
C          6.22305       -2.71352       -0.60955
H          6.10971        1.76044        0.60981
H          6.30122        2.54866        2.17702
H          6.42061        0.80092        2.05080
H          4.25380        3.73921        1.89501
H          3.81931        2.99416        0.35855
H          2.69497        2.96068        1.72001
H          4.52633        0.45943        3.78664
H          4.47723        2.20925        3.98613
H          3.00768        1.32019        3.58300
H          3.49907       -4.44257        0.68468
H          5.09031       -5.07593        0.26235
H          4.92298       -3.89499        1.55800
H          3.21132       -3.93889       -1.75268
H          4.21223       -2.71277       -2.53739
H          4.85886       -4.31891       -2.21100
H          6.35508       -1.87852       -1.29679
H          6.77227       -3.56799       -1.00416
H          6.67876       -2.43992        0.33878
H          6.28919       -2.59593        2.70337
H          6.13343       -1.02671        3.49785
H          4.67191       -1.90701        2.98952
