59
-75.80689925
Cl         1.67133        0.54092        2.28718
P          1.58322       -0.00613       -0.84054
P         -1.63966       -0.08194       -0.75417
C          0.57311        0.00269       -2.38695
H          0.32771        1.03606       -2.64091
H          1.18275       -0.39666       -3.20326
C         -0.67810       -0.79871       -2.16147
H         -0.43140       -1.83279       -1.90619
H         -1.32137       -0.82196       -3.04641
C          2.68066       -1.49814       -0.79305
H          2.63321       -1.95170       -1.79054
C          2.86652        1.32777       -0.74647
H          2.84408        1.69358        0.28750
C         -3.13959       -1.10128       -0.37242
H         -3.35232       -0.90687        0.68641
C         -2.53629        1.44224       -1.31005
H         -1.90417        1.97728       -2.02897
C          4.07875       -0.90862       -0.53451
H          4.28751       -0.95543        0.54311
H          4.85256       -1.52796       -1.01290
C          4.17633        0.56559       -1.01086
H          4.38944        0.59071       -2.08855
H          5.02254        1.07980       -0.52993
C         -4.23980       -0.48466       -1.26661
H         -4.56086       -1.23001       -2.00779
H         -5.13568       -0.28004       -0.66210
C         -3.77426        0.81780       -1.98714
H         -4.59183        1.55330       -2.02464
H         -3.53706        0.59117       -3.03809
C          2.21812       -2.49359        0.26244
H          1.16865       -2.75283        0.07335
H          2.22211       -1.99756        1.24227
C          2.60909        2.48059       -1.70925
H          3.50403        3.11675       -1.75551
H          2.49046        2.07705       -2.72318
C         -2.92149       -2.59390       -0.58466
H         -3.88778       -3.11259       -0.51343
H         -2.58097       -2.76128       -1.61452
C         -2.90260        2.34656       -0.13301
H         -3.71203        3.02319       -0.44120
H         -3.33605        1.72424        0.66114
C          3.06513       -3.75661        0.30612
H          2.70798       -4.46305        1.05894
H          4.10663       -3.52881        0.53973
H          3.05629       -4.27005       -0.65721
C          1.40021        3.31492       -1.31874
H          0.50036        2.70230       -1.26476
H          1.20843        4.12143       -2.03008
H          1.53541        3.76817       -0.33478
C         -1.93919       -3.19222        0.40919
H         -2.29982       -3.08450        1.43393
H         -0.97493       -2.68739        0.36003
H         -1.76568       -4.25562        0.22960
C         -1.74151        3.16311        0.41219
H         -0.92402        2.52580        0.74781
H         -1.34079        3.83514       -0.34863
H         -2.04028        3.77806        1.26415
Cl        -1.61225       -0.04204        2.39750
Pd         0.01663        0.04798        0.85842
