45
-71.81644813
C          0.45236        1.72369        2.93431
P         -0.20921        0.76382        1.53069
P         -0.02031        0.86725       -1.59880
C          0.76407        1.82439       -2.94054
Cl         2.86564       -0.34209        1.72136
H          1.23456        1.15660        3.43093
H          1.59184        1.26047       -3.36114
Cl         3.09582       -0.16151       -1.47741
C         -1.40519        1.74723        0.60478
C         -1.31816        1.79915       -0.76841
C         -2.24019        2.52121       -1.49777
C         -3.24809        3.20623       -0.84201
C         -3.33179        3.16061        0.53628
C         -2.40951        2.42794        1.26261
H         -2.17075        2.53864       -2.57339
H         -3.96935        3.77275       -1.40772
H         -4.11741        3.69300        1.04672
H         -2.46861        2.37979        2.33797
Pd         1.50865        0.28570        0.04374
H          1.14296        2.76356       -2.54763
H         -0.33826        1.93377        3.64880
H          0.04264        2.03455       -3.72488
C         -1.70950       -3.16800       -2.83647
C         -1.10335       -2.37730       -3.79363
C         -0.58271       -1.14404       -3.44422
C         -0.67446       -0.71220       -2.14083
C         -1.27654       -1.49656       -1.18562
C         -1.79679       -2.73015       -1.52993
H         -2.11275       -4.12951       -3.10941
H         -1.03345       -2.72147       -4.81245
H         -0.10356       -0.52084       -4.18132
H         -1.32308       -1.14268       -0.17055
H         -2.26349       -3.34611       -0.77897
C         -1.94251       -3.22805        2.84182
C         -2.79371       -2.18943        2.51814
C         -2.27430       -0.96572        2.13662
C         -0.91022       -0.79146        2.08170
C         -0.05902       -1.82325        2.40294
C         -0.57445       -3.04739        2.78601
H         -2.34695       -4.18218        3.13795
H         -3.86103       -2.33226        2.55927
H         -2.92582       -0.15007        1.86876
H          1.00540       -1.66270        2.33618
H          0.09034       -3.85796        3.03538
H          0.86815        2.66169        2.57757
