75
-122.81474226
P          1.83617       -0.56902       -0.05370
C          1.72623       -1.51096       -1.58539
C          1.49646       -0.88958       -2.79147
C          1.50300       -1.62598       -3.96112
C          1.73623       -2.98589       -3.91563
C          1.95856       -3.60935       -2.70401
C          1.95534       -2.86744       -1.53641
H          2.14462       -3.33853       -0.58487
H          2.13704       -4.67138       -2.66696
H          1.73716       -3.56258       -4.82613
H          1.31880       -1.13953       -4.90484
H          1.29780        0.16835       -2.81206
C          3.14255       -1.34755        0.90850
C          4.44103       -1.26737        0.45905
C          5.45284       -1.89549        1.16259
C          5.15415       -2.61152        2.30464
C          3.84716       -2.70815        2.73894
C          2.83793       -2.07948        2.03291
H          1.81242       -2.15290        2.35793
H          3.61246       -3.27163        3.62701
H          5.94160       -3.10017        2.85493
H          6.47120       -1.82933        0.81643
H          4.65563       -0.73034       -0.45150
C          2.19986        1.16002       -0.41241
C          3.33785        1.82018       -0.01080
C          3.48805        3.17888       -0.25102
C          2.46335        3.86193       -0.90520
C          1.30887        3.21845       -1.29193
C          1.17101        1.84352       -1.04436
O         -0.00679        1.15734       -1.38573
C         -1.20928        1.82135       -1.09311
C         -1.37166        3.18754       -1.37289
C         -2.56531        3.80357       -1.06857
C         -3.60989        3.10173       -0.46805
C         -3.42058        1.76221       -0.15735
C         -2.24060        1.13073       -0.47389
P         -1.84708       -0.55445        0.02434
C         -3.17206       -1.24676        1.02600
C         -4.41170       -1.39640        0.44663
C         -5.45220       -1.94118        1.17761
C         -5.24056       -2.33915        2.48261
C         -3.99234       -2.19788        3.05562
C         -2.95445       -1.65323        2.32227
H         -1.97704       -1.53546        2.76080
H         -3.82650       -2.50875        4.07403
H         -6.05030       -2.76252        3.05424
H         -6.42456       -2.05635        0.72760
H         -4.55710       -1.09359       -0.57874
C         -1.67018       -1.62055       -1.40811
C         -1.82940       -1.11673       -2.67844
C         -1.77481       -1.96825       -3.76646
C         -1.56294       -3.31894       -3.57217
C         -1.40215       -3.81926       -2.29510
C         -1.45879       -2.96528       -1.20817
H         -1.35092       -3.34127       -0.20274
H         -1.23314       -4.87270       -2.14413
H         -1.51621       -3.98317       -4.41961
H         -1.89419       -1.57692       -4.76331
H         -1.99269       -0.05988       -2.81258
Pd         0.02183        0.01127        1.36083
Cl        -1.53713        1.05965        2.61414
Cl         1.60091        0.53258        2.87842
H         -4.19103        1.21977        0.36162
C         -4.87474        3.79123       -0.09959
H         -5.08131        4.62277       -0.77457
H         -4.81700        4.18661        0.91527
H         -5.72297        3.10703       -0.14677
H         -2.68273        4.85079       -1.28462
S         -0.01914        4.08219       -2.09198
H          2.56574        4.91447       -1.10204
C          4.72921        3.88537        0.16440
H          4.10531        1.28570        0.51970
H          5.11480        3.48078        1.10116
H          5.50652        3.78101       -0.59358
H          4.54557        4.94994        0.31486
