87
-129.18506156
P         -1.67637       -0.36485       -0.10240
P          1.54209        0.31545       -0.18792
C         -1.43603        0.96918       -1.30307
C          1.30076       -0.66346       -1.67601
C         -0.49948        0.92618       -2.33441
C         -0.30169        2.07734       -3.12179
C         -1.06567        3.20585       -2.88101
C         -2.00109        3.22591       -1.87052
C         -2.17429        2.10753       -1.07948
C          2.09349       -1.76241       -1.89962
C          1.91760       -2.52320       -3.03837
C          0.94199       -2.17527       -3.94873
C          0.12997       -1.07241       -3.74113
C          0.31708       -0.29103       -2.58304
Cl         1.39939        1.17979        2.84741
Cl        -1.43214       -0.58259        3.14026
H         -2.58477        4.11347       -1.68872
H         -2.89030        2.12598       -0.27477
H          2.85644       -2.02418       -1.18579
H          2.53711       -3.38779       -3.21176
H         -0.91245        4.08032       -3.49050
H          0.79684       -2.76987       -4.83468
C         -0.85291       -4.58607       -1.57144
C         -0.33508       -4.17140       -0.35208
C         -0.61923       -2.88292        0.08281
C         -1.38293       -2.03652       -0.68796
C         -1.91670       -2.46507       -1.88016
C         -1.64944       -3.74630       -2.32523
H         -0.62815       -5.57758       -1.92584
C          0.54300       -5.06426        0.45164
H         -0.26372       -2.55047        1.04291
H         -2.52006       -1.78912       -2.46496
H         -2.05065       -4.08338       -3.26691
C         -5.83666       -0.05079        1.72824
C         -5.56962       -1.01630        0.77799
C         -4.30495       -1.11155        0.22820
C         -3.31647       -0.24471        0.63303
C         -3.58229        0.71920        1.57832
C         -4.84900        0.83415        2.13774
H         -6.81820        0.01940        2.16523
H         -6.34459       -1.69787        0.46760
H         -4.08230       -1.86354       -0.51091
H         -2.79398        1.37698        1.90569
C         -5.11726        1.85253        3.18918
C          4.95422       -1.48711        2.24021
C          5.07766       -0.20984        1.72997
C          4.04794        0.33988        0.99012
C          2.90644       -0.39152        0.76124
C          2.78044       -1.66252        1.27258
C          3.80086       -2.22892        2.02562
H          5.75611       -1.91799        2.81515
H          5.97414        0.36015        1.91127
H          4.12626        1.34012        0.59715
H          1.88346       -2.22598        1.08247
C          3.66225       -3.61143        2.55882
C          2.38684        4.62998       -1.32821
C          3.11587        3.60861       -1.90526
C          2.86976        2.29672       -1.54462
C          1.90168        2.02134       -0.60761
C          1.17932        3.03614       -0.02488
C          1.41369        4.35991       -0.37586
H          2.56707        5.65128       -1.61753
H          3.86895        3.83194       -2.64307
H          3.41519        1.48441       -1.99908
H          0.41969        2.80155        0.70151
C          0.59963        5.45331        0.22044
Pd        -0.05903        0.11267        1.51810
C          0.72121        2.11581       -4.20417
C         -0.92457       -0.74506       -4.74041
H          1.43932        1.30112       -4.10590
H          0.25260        2.03777       -5.18588
H          1.28246        3.05080       -4.17400
H         -0.48350       -0.34434       -5.65392
H         -1.49639       -1.63502       -5.00727
H         -1.62780       -0.00691       -4.35327
H          1.58936       -4.92739        0.17479
H          0.44642       -4.85410        1.51779
H          0.28733       -6.11324        0.29604
H         -6.17861        2.09951        3.24002
H         -4.80868        1.48526        4.16891
H         -4.57087        2.77537        2.98890
H          3.88001       -4.34907        1.78514
H          4.34493       -3.78502        3.39173
H          2.64823       -3.79005        2.91967
H          1.16469        6.38523        0.26753
H         -0.29921        5.63251       -0.37126
H          0.28940        5.20188        1.23573
