87
-129.18778384
P         -1.57326       -0.31332       -0.30020
P          1.63221        0.36599       -0.02930
C         -1.27753        0.97574       -1.51952
C          1.47050       -0.68390       -1.48621
C         -0.26114        0.84095       -2.45887
C         -0.02640        1.89809       -3.36030
C         -0.82395        3.02854       -3.29940
C         -1.83274        3.13850       -2.36643
C         -2.05393        2.10794       -1.47455
C          2.23019       -1.82829       -1.52425
C          2.10533       -2.71512       -2.57515
C          1.20370       -2.45360       -3.58381
C          0.42204       -1.31113       -3.56417
C          0.56394       -0.39609       -2.50261
Cl         1.13543        0.54800        3.20109
Cl        -1.41511       -1.46604        2.75371
H         -2.44029        4.02773       -2.32687
H         -2.83655        2.18826       -0.73861
H          2.92378       -2.03286       -0.72568
H          2.70175       -3.61240       -2.59991
H         -0.64074        3.83367       -3.99060
H          1.09226       -3.14809       -4.39920
C         -1.81493       -4.41929       -2.22551
C         -0.96735       -4.22546       -1.14335
C         -0.92953       -2.97074       -0.54795
C         -1.69386       -1.94001       -1.04325
C         -2.52631       -2.13718       -2.11975
C         -2.59112       -3.38521       -2.71131
H         -1.86121       -5.39092       -2.68702
C         -0.13657       -5.33804       -0.60861
H         -0.29219       -2.80153        0.30341
H         -3.11013       -1.31256       -2.49783
H         -3.24157       -3.54792       -3.55500
C         -5.28926        0.66627        2.14798
C         -5.29640       -0.42075        1.29629
C         -4.17337       -0.71754        0.54741
C         -3.05360        0.07314        0.65504
C         -3.04321        1.15458        1.50606
C         -4.16544        1.47298        2.26060
H         -6.15949        0.89361        2.73985
H         -6.17409       -1.04144        1.21978
H         -4.16133       -1.56925       -0.11258
H         -2.15378        1.75583        1.59528
C         -4.13621        2.62383        3.20353
C          5.35313       -0.75303        2.34903
C          5.31491        0.43799        1.65132
C          4.18780        0.77672        0.92667
C          3.10899       -0.07590        0.90447
C          3.14489       -1.26287        1.59998
C          4.27157       -1.62275        2.32904
H          6.22587       -1.01410        2.92301
H          6.16010        1.10619        1.67623
H          4.14062        1.70782        0.38629
H          2.28571       -1.91324        1.59274
C          4.28808       -2.88940        3.10990
C          1.48163        4.81163       -0.95198
C          2.35223        3.99616       -1.64840
C          2.40718        2.64392       -1.36540
C          1.59636        2.12352       -0.38441
C          0.74263        2.93621        0.32505
C          0.65936        4.29297        0.03903
H          1.43421        5.86395       -1.17455
H          2.98300        4.41117       -2.41733
H          3.06681        1.98871       -1.91233
H          0.13559        2.51724        1.10914
C         -0.27251        5.16597        0.80292
Pd        -0.05055       -0.23753        1.46821
C          1.06399        1.83142       -4.37264
C         -0.55530       -1.08235       -4.66467
H          1.76330        1.02340       -4.15527
H          0.65776        1.66725       -5.37143
H          1.63356        2.76163       -4.39160
H         -0.04832       -0.75796       -5.57419
H         -1.10235       -1.99776       -4.89448
H         -1.28903       -0.32147       -4.39661
H         -0.66172       -5.86446        0.18951
H          0.10457       -6.06088       -1.38929
H          0.80443       -4.96332       -0.20274
H         -3.71067        2.32553        4.16265
H         -3.53107        3.44037        2.80667
H         -5.13934        3.01210        3.38522
H          3.78682       -2.75674        4.06960
H          3.77640       -3.68806        2.57089
H          5.30861       -3.22141        3.30530
H         -0.54292        6.05334        0.22890
H         -1.19454        4.63508        1.04523
H          0.18305        5.49399        1.73820
