171
-217.84862896
P         -1.58683        0.43593       -0.32865
P          1.58107       -0.29605       -0.23486
C         -0.82533        1.49005       -1.57401
C          0.95687       -1.17367       -1.67131
C          0.01834        0.96790       -2.54905
C          0.67348        1.85599       -3.42412
C          0.43569        3.21578       -3.31416
C         -0.42288        3.71205       -2.35687
C         -1.04493        2.84328       -1.48251
C          1.18516       -2.52468       -1.76038
C          0.69577       -3.24071       -2.83541
C         -0.03225       -2.59431       -3.81208
C         -0.27593       -1.23264       -3.73881
C          0.23967       -0.49967       -2.65234
Cl         1.48442        0.40789        3.00612
Cl        -1.65646       -0.14540        2.94211
C         -1.05495       -0.56636       -4.81857
C          1.62582        1.36841       -4.45939
H         -0.60246        4.77229       -2.28485
H         -1.70620        3.22525       -0.72216
H          1.75052       -3.01979       -0.98714
H          0.88343       -4.29918       -2.91145
H          0.93850        3.88930       -3.98765
H         -0.42122       -3.14992       -4.64865
C         -3.43325       -3.42427       -1.80052
C         -2.55876       -3.46564       -0.72159
C         -1.98260       -2.27173       -0.30948
C         -2.26964       -1.09690       -0.95911
C         -3.13788       -1.07142       -2.02312
C         -3.74487       -2.24266       -2.46210
H         -3.90292       -4.33180       -2.12997
H         -1.31891       -2.25356        0.53784
H         -3.34762       -0.12657       -2.49493
C         -4.82999        2.64356        1.95042
C         -3.50810        3.02693        2.13847
C         -2.52812        2.35552        1.41811
C         -2.86765        1.34136        0.55674
C         -4.17985        0.97454        0.38711
C         -5.19282        1.62422        1.07987
H         -5.59869        3.14260        2.51138
H         -1.48738        2.59866        1.54614
H         -4.40703        0.16312       -0.28044
C          4.21364       -3.06902        2.21777
C          2.83436       -3.19267        2.32442
C          2.04685       -2.35572        1.54415
C          2.62203       -1.40391        0.73779
C          3.98753       -1.27719        0.67046
C          4.81454       -2.11676        1.40511
H          4.84007       -3.73233        2.78488
H          0.97424       -2.42863        1.57610
H          4.40539       -0.51107        0.04339
C          3.94604        3.40638       -1.31168
C          2.90763        3.51571       -0.39571
C          2.19820        2.36436       -0.07971
C          2.50284        1.17210       -0.68735
C          3.51384        1.08620       -1.61344
C          4.26677        2.20887       -1.93867
H          4.53579        4.27771       -1.52855
H          1.40548        2.38628        0.64749
H          3.71114        0.13376       -2.07527
Pd        -0.04763        0.10005        1.39200
C         -0.73567       -5.05852       -0.07469
C         -2.24035       -4.75827        0.04241
C         -3.02102       -5.96272       -0.51763
C         -2.62573       -4.57573        1.52288
H         -0.46729       -5.94483        0.49981
H         -0.46067       -5.23541       -1.11367
H         -0.13676       -4.22576        0.28921
H         -2.78661       -6.86832        0.04181
H         -4.09641       -5.80027       -0.44732
H         -2.76551       -6.14514       -1.56130
H         -3.69141       -4.36910        1.61900
H         -2.40230       -5.47358        2.09879
H         -2.08683       -3.74502        1.97587
C         -6.13380       -2.72840       -3.03711
C         -4.77833       -2.25858       -3.59769
C         -4.31527       -3.22609       -4.70291
C         -4.96905       -0.85928       -4.21479
H         -6.06543       -3.73597       -2.62858
H         -6.47074       -2.06707       -2.23942
H         -6.89696       -2.73468       -3.81515
H         -3.33797       -2.93783       -5.08706
H         -4.23780       -4.24666       -4.33019
H         -5.01741       -3.22989       -5.53646
H         -5.33223       -0.14916       -3.47220
H         -4.03559       -0.47876       -4.62680
H         -5.69836       -0.88992       -5.02416
C         -3.57339        3.64091        4.56330
C         -3.16594        4.12127        3.15882
C         -3.92817        5.41159        2.80490
C         -1.65771        4.43588        3.16855
H         -3.05446        2.71666        4.81703
H         -3.32633        4.38659        5.31868
H         -4.64425        3.44885        4.61967
H         -5.00619        5.26054        2.84350
H         -3.68036        6.21351        3.50014
H         -3.67223        5.74555        1.79950
H         -1.07408        3.55855        3.44703
H         -1.32755        4.77696        2.18813
H         -1.43019        5.22337        3.88680
C         -6.85075        0.10241       -0.10823
C         -6.66832        1.22826        0.92927
C         -7.48086        2.45169        0.46683
C         -7.19925        0.73247        2.28651
H         -7.90318       -0.16066       -0.21343
H         -6.48814        0.41138       -1.08839
H         -6.31503       -0.79830        0.19116
H         -8.53077        2.19334        0.32978
H         -7.42971        3.26043        1.19480
H         -7.09972        2.83013       -0.48151
H         -7.13697        1.51256        3.04436
H         -8.24172        0.42414        2.20914
H         -6.61910       -0.12095        2.63706
C          0.71584       -3.98041        3.48799
C          2.22090       -4.23445        3.27112
C          2.91234       -4.16335        4.64716
C          2.41189       -5.63436        2.66446
H          0.15753       -4.11544        2.56426
H          0.30561       -4.67608        4.21975
H          0.53923       -2.96860        3.85294
H          2.44472       -4.84960        5.35302
H          3.96634       -4.42911        4.58224
H          2.84260       -3.15689        5.05942
H          1.93321       -5.69960        1.68760
H          3.46951       -5.86182        2.53337
H          1.97854       -6.40139        3.30606
C          6.80143       -0.87712        0.40996
C          6.34513       -2.01213        1.34770
C          6.92597       -3.33918        0.82659
C          6.88815       -1.72389        2.75944
H          6.42058        0.08637        0.74830
H          7.88897       -0.81083        0.38218
H          6.45578       -1.04842       -0.60920
H          6.67160       -4.16862        1.48543
H          6.53459       -3.56714       -0.16473
H          8.01252       -3.28913        0.75757
H          6.46431       -0.79997        3.15248
H          6.63911       -2.52703        3.45193
H          7.97295       -1.61964        2.74655
C          2.41798        5.94350       -0.82232
C          2.60141        4.86665        0.26413
C          3.77139        5.25147        1.18598
C          1.30974        4.80373        1.10212
H          1.62490        5.66092       -1.51365
H          2.15257        6.90298       -0.37874
H          3.32981        6.08777       -1.40014
H          3.58267        6.20438        1.68005
H          3.91889        4.49426        1.95586
H          4.70059        5.34229        0.62428
H          1.07651        5.77951        1.52791
H          0.46357        4.49748        0.48757
H          1.40974        4.10095        1.92897
C          5.35802        3.25028       -3.95950
C          5.46812        2.14267       -2.89339
C          5.54618        0.78200       -3.61336
C          6.75928        2.34343       -2.07987
H          4.43140        3.15847       -4.52396
H          5.37844        4.24184       -3.50961
H          6.18671        3.19282       -4.66511
H          6.38107        0.76259       -4.31372
H          5.69625       -0.03145       -2.90417
H          4.63566        0.58337       -4.17772
H          6.85706        1.57326       -1.31564
H          7.63814        2.29513       -2.72256
H          6.76145        3.31146       -1.57973
H         -1.84763       -1.21697       -5.18762
H          2.54494        1.95352       -4.44101
H         -0.41324       -0.31642       -5.66429
H         -1.52036        0.35386       -4.46265
H          1.19548        1.45526       -5.45800
H          1.89818        0.32502       -4.29580
