58
-89.86747232
P          1.85733       -0.24165        0.50370
C          1.55976        1.52417        0.71777
C          1.29860        2.26075       -0.41576
C          1.01823        3.61080       -0.31706
C          1.00697        4.21830        0.92206
C          1.28147        3.48053        2.05637
C          1.56050        2.13018        1.95319
H          1.78844        1.55602        2.83512
H          1.30819        1.76696       -1.37517
C          3.40496       -0.52185       -0.36130
C          4.27105        0.52307       -0.58906
C          5.45768        0.29815       -1.26318
C          5.76687       -0.97317       -1.70518
C          4.89402       -2.01837       -1.47504
C          3.70815       -1.79034       -0.79952
H          3.01033       -2.59386       -0.62278
H          4.01367        1.51078       -0.24244
C          1.89227       -1.18398        2.08928
C          0.53461       -1.68222        2.55911
C         -0.51973       -0.58949        2.66728
P         -1.35583       -0.30515        1.05084
C         -1.92837        1.38908        0.85856
C         -1.98659        2.25806        1.92454
C         -2.41960        3.55679        1.72710
C         -2.79597        3.97471        0.46571
C         -2.74882        3.09595       -0.59814
C         -2.31665        1.79855       -0.39667
H         -2.28146        1.09200       -1.21092
H         -1.69487        1.92272        2.90608
C         -2.73308       -1.45228        0.93275
C         -2.51277       -2.77559        0.62653
C         -3.58282       -3.64784        0.53872
C         -4.86603       -3.18826        0.76042
C         -5.08239       -1.85970        1.06851
C         -4.01027       -0.98973        1.15476
H         -4.16302        0.05157        1.38976
H         -1.50841       -3.11965        0.43919
Pd        -0.01712       -0.61862       -0.82207
Cl         1.35325       -0.62014       -2.59902
Cl        -1.84340       -1.13486       -2.02007
H         -1.31189       -0.85449        3.37231
H         -0.08033        0.34339        3.01951
H          0.17066       -2.45973        1.87355
H          0.65233       -2.18857        3.53011
H          2.58333       -2.01795        1.94351
H          2.35140       -0.53572        2.83708
H          0.80284        4.18343       -1.20406
H          1.27536        3.95625        3.02334
H          6.13705        1.11451       -1.44561
H          5.13244       -3.00923       -1.82513
H         -2.45929        4.24274        2.55729
H         -3.04664        3.41852       -1.58218
H         -3.41445       -4.68326        0.29207
H         -6.08377       -1.49972        1.23851
H          0.78273        5.26930        1.00422
H          6.68956       -1.14937       -2.23367
H         -3.12955        4.98799        0.31193
H         -5.70033       -3.86695        0.68939
