87
-129.18837001
P         -1.64163       -0.34478       -0.22997
P          1.63243        0.37118       -0.08437
C         -1.35420        0.96534       -1.43427
C          1.42766       -0.66664       -1.54060
C         -0.35236        0.86835       -2.39563
C         -0.12666        1.96306       -3.25291
C         -0.91822        3.09259       -3.13332
C         -1.91245        3.16603       -2.18203
C         -2.12292        2.09954       -1.33072
C          2.20658       -1.79331       -1.64585
C          2.05668       -2.64560       -2.72176
C          1.11517       -2.36463       -3.68833
C          0.31578       -1.23744       -3.60081
C          0.47800       -0.36082       -2.50996
Cl         1.20091        0.75567        3.11140
Cl        -1.41806       -1.23257        2.83038
H         -2.51603        4.05468       -2.09570
H         -2.89185        2.15417       -0.57815
H          2.93668       -2.00901       -0.88360
H          2.66819       -3.52946       -2.80113
H         -0.74204        3.92545       -3.79276
H          0.98812       -3.03048       -4.52502
C         -1.49315       -4.50431       -2.04807
C         -0.72961       -4.22589       -0.92266
C         -0.80167       -2.95227       -0.37254
C         -1.61060       -1.99255       -0.93551
C         -2.37532       -2.27984       -2.04153
C         -2.31732       -3.54322       -2.60033
H         -1.43474       -5.48372       -2.49142
C          0.18787       -5.24437       -0.34393
H         -0.21706       -2.71319        0.49938
H         -2.99790       -1.51088       -2.47138
H         -2.90727       -3.77368       -3.47223
C         -5.49729        0.42235        2.06997
C         -5.42954       -0.62616        1.17391
C         -4.26186       -0.85918        0.47217
C         -3.17253       -0.04374        0.67087
C         -3.23708        1.00008        1.56529
C         -4.40481        1.25378        2.27431
H         -6.40251        0.59961        2.62536
H         -6.28378       -1.26628        1.02564
H         -4.19180       -1.68016       -0.22225
H         -2.36996        1.61890        1.72809
C         -4.45680        2.36163        3.26648
C          5.20597       -1.02187        2.37264
C          5.24610        0.20441        1.73888
C          4.16600        0.62832        0.98799
C          3.05602       -0.17550        0.87615
C          3.01253       -1.39639        1.50972
C          4.09195       -1.84236        2.26239
H          6.04201       -1.34981        2.96660
H          6.11578        0.83371        1.83426
H          4.17930        1.58768        0.49751
H          2.12919       -2.00840        1.43054
C          4.02581       -3.14755        2.97409
C          1.84462        4.78468       -1.13137
C          2.69521        3.89005       -1.75106
C          2.63891        2.54695       -1.42743
C          1.73983        2.11538       -0.48088
C          0.90062        3.00516        0.14855
C          0.92983        4.35482       -0.17987
H          1.88424        5.83034       -1.38484
H          3.39768        4.23636       -2.49129
H          3.28154        1.83088       -1.91530
H          0.21071        2.65135        0.89589
C          0.01686        5.31469        0.49776
Pd        -0.05031       -0.09811        1.45930
C          0.94651        1.93481       -4.28539
C         -0.69615       -0.97956       -4.66278
H          0.52552        1.78261       -5.27992
H          1.49990        2.87484       -4.29615
H          1.66328        1.13515       -4.09571
H         -1.42558       -0.23272       -4.34757
H         -0.21895       -0.62142       -5.57576
H         -1.24419       -1.89071       -4.90667
H         -0.16656       -6.25601       -0.54627
H          1.18912       -5.14637       -0.76596
H          0.26686       -5.13046        0.73826
H         -4.05568        2.03721        4.22766
H         -3.87030        3.21751        2.92902
H         -5.48067        2.70282        3.42568
H          3.43969       -3.87344        2.40840
H          5.02148       -3.56801        3.12223
H          3.55986       -3.02932        3.95334
H         -0.20086        6.17088       -0.14229
H         -0.93291        4.84002        0.74941
H          0.46241        5.68705        1.42118
