111
-148.55806383
P         -2.34352       -2.34162       -0.43727
P         -0.01621       -0.18904       -0.55651
C         -1.53999       -1.97341       -2.01659
C         -0.54041       -1.02691       -2.06362
C         -2.55631       -4.15915       -0.17479
C         -1.57849       -4.67020        0.86119
C         -1.93025       -2.62296       -3.16986
H         -2.71905       -3.35628       -3.12645
C         -1.31122       -2.32279       -4.37119
H         -1.61462       -2.82885       -5.27312
C         -0.30716       -1.37438       -4.41568
H          0.17532       -1.14108       -5.35053
C          0.07914       -0.72328       -3.25755
H          0.86269        0.01815       -3.27369
Pd        -1.15791       -1.21316        1.17691
Cl        -2.65263       -1.87856        2.71303
Cl         0.08070       -0.07287        2.66182
C         -4.03753       -4.27676        0.23139
C         -4.10870       -1.79092       -0.38323
H         -0.54482       -4.49508        0.55245
H         -1.72595       -4.16080        1.81543
H         -1.70456       -5.74137        1.03562
H         -4.10432       -4.25313        1.32790
H         -4.44104       -5.25602       -0.06805
H         -4.22974       -1.25833        0.56945
C         -4.88941       -3.11853       -0.36157
C         -4.43699       -0.88734       -1.55282
H         -2.38308       -4.63935       -1.14646
H         -5.18601       -3.37160       -1.38870
H         -5.83103       -2.99905        0.19554
H         -4.31308       -1.41737       -2.49877
H         -5.46872       -0.53084       -1.50652
H         -3.77553       -0.01850       -1.58015
C         -1.22388        4.20186       -0.48986
C         -0.01946        3.81939       -1.13443
C          0.33331        2.47957       -1.12798
C         -0.49268        1.53593       -0.57498
C         -1.71265        1.88718       -0.05741
C         -2.12403        3.20921       -0.02598
O         -1.50840        5.57853       -0.28504
C          0.90502        4.84178       -1.81478
H          1.26782        2.15310       -1.55016
H         -2.34074        1.11072        0.34278
C         -3.50927        3.54349        0.55048
C          4.34928       -1.02839        0.42666
C          3.77508        0.21127        0.80798
C          2.44526        0.44193        0.49716
C          1.72036       -0.46739       -0.22657
C          2.29897       -1.62324       -0.68316
C          3.62551       -1.91483       -0.41122
O          5.62776       -1.40291        0.91891
C          4.55073        1.28155        1.59092
H          1.94473        1.32862        0.84549
H          1.68964       -2.30759       -1.24825
C          4.24267       -3.19595       -0.99353
C          1.87760        5.42611       -0.77972
C          1.73027        4.17381       -2.93773
C          0.08550        5.97036       -2.46678
C         -4.50827        2.39664        0.27598
C         -3.38963        3.73259        2.07053
C         -4.09713        4.80818       -0.10154
C         -1.03420        6.09217        0.95353
H          2.56179        6.13587       -1.24410
H          1.34632        5.94446        0.01399
H          2.47075        4.63665       -0.32074
H          2.45693        3.46835       -2.53703
H          1.08098        3.64268       -3.63332
H          2.28761        4.91972       -3.50397
H         -0.63377        5.56196       -3.17590
H         -0.46614        6.53966       -1.72239
H          0.73199        6.66579       -3.00143
H         -5.51497        2.67943        0.58282
H         -4.53869        2.15796       -0.78647
H         -4.25003        1.49361        0.82679
H         -4.35737        3.96771        2.51270
H         -3.01435        2.82461        2.54223
H         -2.70237        4.53877        2.31542
H         -4.14500        4.69420       -1.18399
H         -5.10482        5.00494        0.26366
H         -3.49321        5.68561        0.11376
H         -1.87648        6.40433        1.57035
H         -0.45685        5.33378        1.48391
H         -0.40851        6.96531        0.76886
C          5.58588       -2.10537        2.15490
C          6.05153        1.24852        1.24954
C          4.04078        2.69419        1.22685
C          4.34250        1.05481        3.09599
C          5.74814       -3.01551       -1.26024
C          4.01338       -4.35998       -0.01766
C          3.58508       -3.54987       -2.34724
H          6.50790        0.30965        1.55222
H          6.20334        1.36264        0.17673
H          6.58618        2.05216        1.75532
H          4.66611        3.46138        1.68291
H          4.06110        2.84338        0.14766
H          3.02385        2.86035        1.57892
H          4.86838        1.80835        3.68158
H          3.28392        1.10674        3.34971
H          4.70666        0.07652        3.40086
H          6.29660       -2.84210       -0.33774
H          6.17136       -3.90124       -1.73337
H          5.92200       -2.16398       -1.91723
H          4.48099       -4.16558        0.94457
H          2.94845       -4.51285        0.15637
H          4.42787       -5.28746       -0.41190
H          2.54663       -3.85409       -2.22478
H          4.10631       -4.37882       -2.82552
H          3.61531       -2.69871       -3.02704
H          4.55339       -2.24316        2.47867
H          6.06377       -3.07799        2.03869
H          6.13235       -1.54588        2.91388
