105
-153.06548301
Cl        -0.45313        1.81781       -3.09747
Pd         0.33178        1.32563       -1.04630
P          1.45465        0.63617        0.90168
N          1.48288       -1.07324        1.29043
C          0.36659       -1.92231        1.39165
C         -0.12190       -2.58678        0.23899
C         -1.17009       -3.51476        0.35264
C         -1.67898       -4.18667       -0.89855
C         -2.58014       -5.40550       -0.64279
C         -3.57238       -5.13071        0.49210
C         -2.83052       -4.79027        1.79407
C         -1.71201       -3.79663        1.60876
C         -1.20361       -3.15264        2.73208
C         -0.19034       -2.23340        2.63107
H          0.19836       -1.75328        3.51066
H         -1.62446       -3.38123        3.69658
H         -3.53279       -4.39977        2.54162
H         -4.22011       -4.29092        0.21128
H         -3.11067       -5.69753       -1.56003
H         -2.22464       -3.44176       -1.48976
C          0.55719       -2.35629       -1.05714
C         -0.09724       -1.62588       -2.08241
C          0.60098       -1.38128       -3.26818
C          1.89573       -1.80366       -3.42682
C          2.54353       -2.53627       -2.43964
C          3.96552       -2.97225       -2.68888
C          4.67419       -3.50843       -1.43574
C          3.75922       -4.46763       -0.66826
C          2.47270       -3.75773       -0.21737
C          1.85978       -2.85285       -1.26407
H          1.72006       -4.49804        0.08286
H          4.28716       -4.90505        0.19083
H          4.94687       -2.66878       -0.78384
H          4.52569       -2.12772       -3.11048
H          2.42603       -1.57409       -4.33560
H          0.12239       -0.80619       -4.04128
N         -1.38808       -1.09775       -1.92297
P         -1.65244        0.12012       -0.67081
C         -2.47079       -0.42703        0.81937
C         -3.55839       -1.26160        0.73120
C         -4.25688       -1.59655        1.87777
C         -3.86990       -1.09336        3.11322
C         -2.78904       -0.22372        3.17249
C         -2.09484        0.11154        2.02497
H         -1.25864        0.78762        2.06459
H         -2.49196        0.18819        4.12169
C         -4.62304       -1.44969        4.34684
H         -5.10936       -2.25133        1.81896
H         -3.85879       -1.63879       -0.23354
C         -2.70604        1.45044       -1.27401
C         -2.61512        2.68559       -0.67586
C         -3.42066        3.72150       -1.11193
C         -4.33360        3.52185       -2.13844
C         -4.41657        2.26506       -2.72262
C         -3.60925        1.23039       -2.28621
H         -3.68950        0.25093       -2.72797
H         -5.11671        2.10229       -3.52417
C         -5.17885        4.64473       -2.63054
H         -3.34217        4.69433       -0.65747
H         -1.91419        2.83569        0.13049
H         -1.74376       -0.63843       -2.75116
H          2.03323       -1.25223        0.45324
C          0.86292        1.68208        2.22513
C          0.83493        1.20194        3.51195
C          0.32420        1.99073        4.52683
C         -0.16095        3.26334        4.25496
C         -0.09560        3.74058        2.95237
C          0.41703        2.95106        1.93999
H          0.49385        3.32407        0.93098
H         -0.44600        4.73544        2.73651
C         -0.69760        4.11907        5.34897
H          0.29629        1.62002        5.53720
H          1.21077        0.21236        3.71299
C          3.18191        0.99307        0.54756
C          3.78468        0.36082       -0.51482
C          5.11356        0.61461       -0.80026
C          5.84392        1.50672       -0.02722
C          5.21907        2.12777        1.04627
C          3.89004        1.87288        1.33069
H          3.40040        2.35755        2.15975
H          5.77973        2.81397        1.65772
C          7.28053        1.76263       -0.32388
H          5.59113        0.12255       -1.63028
H          3.21412       -0.32003       -1.12663
Cl         2.03879        2.76738       -1.31901
H         -2.41480       -5.70524        2.23260
H         -1.95708       -6.26862       -0.37688
H         -4.24648       -5.98675        0.63730
H         -0.81979       -4.47596       -1.51696
H          3.49951       -5.31459       -1.31563
H          2.68095       -3.17840        0.68846
H          3.96290       -3.74187       -3.46990
H          5.62237       -3.99820       -1.69901
H         -5.07146       -2.44059        4.26185
H         -3.96736       -1.45768        5.21874
H         -5.42330       -0.73226        4.53321
H         -4.67365        5.18642       -3.43130
H         -6.13096        4.28042       -3.01889
H         -5.39739        5.35327       -1.83038
H         -1.46326        4.80067        4.97579
H         -1.14932        3.51405        6.13639
H          0.09646        4.71752        5.79754
H          7.59146        2.74116        0.04457
H          7.91352        1.00892        0.14646
H          7.46933        1.73895       -1.39807
