64
-97.21923951
Cl        -1.37752       -0.35136       -2.78797
Cl         1.73369       -0.74383       -3.02030
P          1.97769       -0.64440        0.28470
C          2.20850       -2.38118        0.87932
C          3.75363       -0.13379        0.11623
P         -1.31830       -0.31146        0.35767
C          1.16866        0.42007        1.53744
C         -0.27239        0.58260        1.56888
C         -0.58082        1.58958        2.57171
C          0.66738        2.03415        3.16623
C          1.75171        1.30587        2.53216
H         -1.58117        1.91412        2.86435
H          0.77079        2.77108        3.96583
Pd         0.28463       -0.69992       -1.30942
H          2.81650        1.40983        2.74977
C         -5.18594        1.79798       -0.81922
C         -4.96166        0.48358       -1.17721
C         -3.78307       -0.13958       -0.80713
C         -2.83511        0.55076       -0.08668
C         -3.06091        1.85911        0.27549
C         -4.23633        2.48723       -0.09175
H         -6.10233        2.28626       -1.10830
H         -5.70044       -0.05604       -1.74669
H         -3.59271       -1.16427       -1.08476
H         -2.31537        2.38915        0.84104
H         -4.40927        3.51341        0.18848
C         -2.39977       -4.43841        1.91175
C         -2.10063       -4.26450        0.57437
C         -1.77876       -3.00625        0.09896
C         -1.75634       -1.93687        0.96416
C         -2.05930       -2.10125        2.29587
C         -2.38172       -3.35904        2.77378
H         -2.65043       -5.41868        2.28322
H         -2.11872       -5.10611       -0.09842
H         -1.55232       -2.85000       -0.94375
H         -2.03454       -1.24711        2.95422
H         -2.61678       -3.49522        3.81661
C          4.19275       -0.05808       -1.32990
H          3.85583        0.84507        0.60283
C          4.49279       -1.23144        0.90712
H          4.59678       -0.92932        1.95966
C          3.73566       -2.58472        0.83142
H          5.51839       -1.33778        0.52416
C          1.62264       -2.54415        2.26513
H          1.69524       -3.03590        0.16168
H          4.04470       -3.24854        1.65170
H          4.01593       -3.10802       -0.09431
H          0.55625       -2.31209        2.27602
H          1.74980       -3.56312        2.63830
H          2.11097       -1.86786        2.96963
H          5.25435        0.18477       -1.41339
H          4.03215       -1.01578       -1.82789
H          3.63423        0.69594       -1.88625
Fe         0.67093        2.35300        1.13037
C          2.06054        3.30752       -0.01078
C          1.13703        4.27505        0.55876
C         -0.20068        3.90083        0.13165
C         -0.09197        2.74161       -0.73716
C          1.30912        2.39029       -0.84615
H          3.14727        3.32152        0.10154
H          1.39819        5.11584        1.20534
H         -1.12075        4.43908        0.37135
H         -0.90720        2.24481       -1.26730
H          1.71236        1.59710       -1.47706
