105
-153.07237086
Cl        -0.82004        2.08092       -2.88795
Pd         0.09491        1.51666       -0.91586
P          1.33797        0.72400        0.88786
N          0.65573       -0.53256        1.90718
C          0.04064       -1.75363        1.67290
C         -0.10203       -2.33568        0.38958
C         -0.84468       -3.52590        0.24623
C         -0.98634       -4.12652       -1.13313
C         -1.53755       -5.56099       -1.15386
C         -2.69901       -5.71958       -0.16841
C         -2.24331       -5.39495        1.26212
C         -1.42025       -4.13577        1.36274
C         -1.22295       -3.57548        2.61768
C         -0.50850       -2.41586        2.77056
H         -0.39322       -1.98011        3.74780
H         -1.65790       -4.05634        3.47754
H         -3.11233       -5.30398        1.92641
H         -3.51225       -5.04128       -0.45528
H         -1.84797       -5.84527       -2.16923
H         -1.63653       -3.47320       -1.72671
C          0.67018       -1.85406       -0.78146
C          0.00082       -1.24275       -1.87624
C          0.71535       -1.03099       -3.05870
C          2.02615       -1.41605       -3.17134
C          2.68306       -2.05045       -2.12412
C          4.09026       -2.54116       -2.34223
C          4.44096       -3.74040       -1.45060
C          4.11682       -3.42793        0.01320
C          2.63357       -3.06295        0.20375
C          2.00746       -2.27066       -0.92256
H          2.04946       -3.98133        0.33764
H          4.74418       -2.59334        0.34516
H          5.49689       -4.02289       -1.56804
H          4.78727       -1.71842       -2.14942
H          2.55813       -1.24222       -4.09129
H          0.22285       -0.54156       -3.88044
N         -1.33536       -0.82939       -1.80423
P         -1.83176        0.19258       -0.45122
C         -2.79111       -0.72773        0.75024
C         -3.56311       -1.76927        0.29518
C         -4.36325       -2.46967        1.18002
C         -4.39156       -2.12758        2.52513
C         -3.62740       -1.05187        2.95805
C         -2.83151       -0.35007        2.07109
H         -2.23721        0.48290        2.40656
H         -3.65696       -0.76941        3.99652
C         -5.25184       -2.87793        3.48083
H         -4.96837       -3.28852        0.83062
H         -3.53128       -2.03064       -0.75072
C         -2.94670        1.49029       -1.00389
C         -2.90637        2.72717       -0.40440
C         -3.76760        3.72275       -0.82756
C         -4.68303        3.48080       -1.84289
C         -4.71043        2.22360       -2.43149
C         -3.84718        1.22906       -2.00817
H         -3.87437        0.24927       -2.45728
H         -5.40955        2.02925       -3.22683
C         -5.58770        4.56249       -2.32131
H         -3.72966        4.69810       -0.37329
H         -2.19663        2.91403        0.38559
H         -1.68054       -0.35659       -2.62968
H          0.85388       -0.28285        2.86859
C          1.28665        2.21850        1.88526
C          2.42036        2.94981        2.14788
C          2.33118        4.11087        2.89329
C          1.10639        4.54470        3.38321
C         -0.02899        3.79856        3.09725
C          0.06371        2.63718        2.35195
H         -0.81414        2.05640        2.12207
H         -0.98635        4.13479        3.45722
C          1.00533        5.81147        4.15943
H          3.21460        4.69280        3.09342
H          3.36870        2.61869        1.75786
C          3.06725        0.38054        0.56328
C          3.65080        0.70834       -0.63707
C          5.00237        0.49090       -0.82795
C          5.78247       -0.04422        0.18782
C          5.17794       -0.36093        1.39687
C          3.82377       -0.14609        1.58343
H          3.35179       -0.38260        2.52403
H          5.77242       -0.78176        2.18972
C          7.22970       -0.31588       -0.03209
H          5.46137        0.74190       -1.76897
H          3.05136        1.15064       -1.41521
Cl         1.71114        3.07435       -1.06172
H         -1.65472       -6.22954        1.66134
H         -0.73717       -6.26174       -0.88484
H         -3.12468       -6.73148       -0.22504
H         -0.01022       -4.09603       -1.63335
H          4.39414       -4.27270        0.65924
H          2.50249       -2.50078        1.13631
H          4.22462       -2.79870       -3.40058
H          3.86183       -4.61499       -1.77277
H         -4.79170       -2.92550        4.46885
H         -6.22583       -2.39793        3.58489
H         -5.41538       -3.90238        3.14328
H         -5.11644        5.13422       -3.12187
H         -6.52299        4.15295       -2.70544
H         -5.83583        5.25387       -1.51479
H          1.92312        6.00700        4.71572
H          0.82713        6.65849        3.49559
H          0.18577        5.76861        4.87814
H          7.66529        0.40787       -0.72235
H          7.78813       -0.25861        0.90326
H          7.37683       -1.31211       -0.45172
