64
-97.22196905
Cl        -1.34295       -0.29570       -2.80267
Cl         1.83406       -0.88888       -2.93367
P          1.95886       -0.71315        0.30653
C          2.05280       -2.46914        0.89599
C          3.77591       -0.39573        0.07558
P         -1.26827       -0.27766        0.39084
C          1.22852        0.42826        1.53576
C         -0.20865        0.61468        1.59436
C         -0.49254        1.61834        2.61008
C          0.77458        2.07634        3.15224
C          1.83816        1.35191        2.47830
H         -1.48290        1.93904        2.93847
H          0.90440        2.82336        3.93850
Pd         0.29254       -0.69948       -1.32300
H          2.90936        1.46133        2.65917
C         -5.14027        1.83400       -0.77705
C         -4.87304        0.55271       -1.21606
C         -3.69289       -0.06915       -0.84871
C         -2.78420        0.59034       -0.05270
C         -3.05547        1.86369        0.39339
C         -4.23253        2.49057        0.02964
H         -6.05788        2.32144       -1.06368
H         -5.57952        0.03787       -1.84623
H         -3.46986       -1.06854       -1.18797
H         -2.34399        2.36757        1.02247
H         -4.43984        3.49016        0.37508
C         -2.47130       -4.34790        2.00714
C         -2.10774       -4.21871        0.68076
C         -1.74639       -2.97991        0.18319
C         -1.74679       -1.88508        1.01639
C         -2.11687       -2.00446        2.33603
C         -2.47926       -3.24277        2.83591
H         -2.75278       -5.31308        2.39565
H         -2.10685       -5.08021        0.03337
H         -1.47188       -2.85993       -0.85257
H         -2.11306       -1.13046        2.96838
H         -2.76584       -3.34359        3.86983
C          4.13008        0.49441       -1.09560
H          4.11379        0.05953        1.01596
C          4.34552       -1.81941       -0.04502
H          5.41560       -1.82774        0.21308
C          3.55179       -2.82052        0.83310
H          4.29277       -2.13028       -1.09782
C          1.46554       -2.59496        2.28505
H          1.48207       -3.06325        0.16986
H          3.95986       -2.81035        1.85273
H          3.68977       -3.85130        0.47444
H          2.00834       -1.96288        2.99072
H          0.42167       -2.28006        2.30673
H          1.51604       -3.62350        2.64983
H          5.21194        0.55526       -1.23041
H          3.70799        0.10563       -2.02191
H          3.76034        1.51000       -0.95832
Fe         0.69900        2.35663        1.11390
C          1.03580        4.31149        0.54905
C         -0.29332        3.88207        0.14972
C         -0.15267        2.73385       -0.72666
C          1.26114        2.44278       -0.85193
C          1.99964        3.42102       -0.07376
H          1.27000        5.16697        1.18660
H         -1.23041        4.37606        0.41597
H         -0.95493        2.19558       -1.23521
H          1.67987        1.66753       -1.49654
H          3.08587        3.49659        0.01156
