75
-122.81851425
P          1.83017       -0.56190       -0.00728
C          1.69206       -1.55555       -1.49938
C          1.67594       -0.96550       -2.74231
C          1.65988       -1.75323       -3.87825
C          1.66023       -3.12898       -3.76058
C          1.67246       -3.71756       -2.51152
C          1.69079       -2.92620       -1.37693
H          1.71849       -3.37028       -0.39423
H          1.66925       -4.79116       -2.41940
H          1.64357       -3.74446       -4.64515
H          1.64212       -1.29319       -4.85251
H          1.66805        0.10915       -2.81814
C          3.15280       -1.30366        0.96314
C          4.42381       -1.31895        0.43502
C          5.45662       -1.90644        1.14326
C          5.20594       -2.48389        2.37202
C          3.92610       -2.48100        2.89000
C          2.89579       -1.89341        2.17927
H          1.89212       -1.88815        2.57248
H          3.72925       -2.93457        3.84750
H          6.00967       -2.94083        2.92600
H          6.45357       -1.91570        0.73428
H          4.59986       -0.88218       -0.53566
C          2.21375        1.14792       -0.42562
C          3.36825        1.79927       -0.05917
C          3.53207        3.15087       -0.32850
C          2.50124        3.83668       -0.97046
C          1.33202        3.20084       -1.32450
C          1.18626        1.82984       -1.05952
O          0.00321        1.14679       -1.38546
C         -1.19019        1.81712       -1.07150
C         -1.34851        3.18595       -1.34035
C         -2.52917        3.80879       -1.00152
C         -3.55916        3.11282       -0.36985
C         -3.38274        1.76359       -0.09548
C         -2.21616        1.12519       -0.44620
P         -1.82107       -0.57799       -0.01225
C         -3.13994       -1.30487        0.97457
C         -4.40396       -1.36175        0.43259
C         -5.43722       -1.93330        1.15314
C         -5.19404       -2.45272        2.40897
C         -3.92125       -2.40748        2.94208
C         -2.89054       -1.83581        2.21912
H         -1.89293       -1.79729        2.62532
H         -3.73034       -2.81524        3.92114
H         -5.99817       -2.89681        2.97274
H         -6.42872       -1.97472        0.73306
H         -4.57426       -0.96822       -0.55749
C         -1.68788       -1.58442       -1.49576
C         -1.63800       -1.00155       -2.74113
C         -1.62587       -1.79535       -3.87292
C         -1.66272       -3.17001       -3.74860
C         -1.70760       -3.75156       -2.49699
C         -1.72255       -2.95405       -1.36665
H         -1.77559       -3.39222       -0.38235
H         -1.73302       -4.82440       -2.39965
H         -1.64893       -3.79030       -4.62985
H         -1.58183       -1.34099       -4.84901
H         -1.59937        0.07208       -2.82180
Pd        -0.00234       -0.02351        1.40708
Cl        -1.60429        0.93433        2.67049
Cl         1.63003        0.84591        2.69769
H         -4.15272        1.21860        0.42095
C         -4.82922        3.79865       -0.01121
H         -5.54214        3.74944       -0.83521
H         -4.65569        4.84976        0.22286
H         -5.29132        3.33746        0.86264
H         -2.64849        4.85583       -1.21732
S         -0.00862        4.06986       -2.09694
H          2.60996        4.88561       -1.18247
C          4.79031        3.84624        0.05285
H          4.13848        1.26304        0.46601
H          5.57908        3.64599       -0.67339
H          4.64577        4.92611        0.10400
H          5.13928        3.51235        1.03093
