111
-148.55702513
P         -2.52708       -2.01315       -0.92637
P          0.16147       -0.40399       -0.48574
C         -1.38704       -1.77258       -2.31512
C         -0.19935       -1.10475       -2.10855
C         -3.36569       -3.66162       -0.98840
C         -2.79952       -4.60655        0.04894
C         -1.70525       -2.23748       -3.57509
H         -2.64463       -2.74034       -3.73634
C         -0.82450       -2.03994       -4.62463
H         -1.07171       -2.40319       -5.60879
C          0.36812       -1.37488       -4.41363
H          1.05229       -1.21857       -5.23134
C          0.67930       -0.90077       -3.15198
H          1.59808       -0.36408       -2.97372
Pd        -1.34521       -1.41332        0.95815
Cl        -3.07571       -2.09867        2.20844
Cl        -0.05889       -0.75668        2.68070
C         -4.84884       -3.29820       -0.78665
C         -3.99740       -0.89106       -0.97539
H         -3.29722       -5.57862        0.01773
H         -1.72945       -4.76735       -0.10261
H         -2.93015       -4.20240        1.05380
H         -5.08729       -3.37464        0.28321
H         -5.49638       -4.03414       -1.28717
H         -4.10035       -0.48057        0.03816
C         -5.15777       -1.85615       -1.28193
C         -3.81128        0.21809       -1.98765
H         -3.20385       -4.05735       -1.99901
H         -5.32872       -1.87030       -2.36717
H         -6.09389       -1.48140       -0.84069
H         -3.64510       -0.19164       -2.98569
H         -4.68880        0.86702       -2.03587
H         -2.94635        0.83669       -1.73933
C         -1.15429        3.95734       -0.31294
C         -0.95903        3.33457       -1.57488
C         -0.53428        2.01630       -1.59665
C         -0.38313        1.30261       -0.43678
C         -0.69409        1.86311        0.77352
C         -1.12310        3.17411        0.87107
O         -1.29567        5.36622       -0.22736
C         -1.20102        4.03489       -2.92280
H         -0.31105        1.53090       -2.53084
H         -0.58975        1.25616        1.65635
C         -1.55763        3.68115        2.25603
C          4.48739       -0.83949        0.87088
C          3.74323        0.31448        1.22438
C          2.43167        0.40409        0.79146
C          1.87858       -0.56094       -0.00834
C          2.62272       -1.63098       -0.43188
C          3.94650       -1.77538       -0.04843
O          5.75412       -1.07791        1.46719
C          4.31159        1.43813        2.10478
H          1.81162        1.22933        1.09384
H          2.14921       -2.36095       -1.06537
C          4.76334       -2.94960       -0.61073
C         -2.02678        3.10956       -3.84394
C         -1.99884        5.34148       -2.76952
C          0.15094        4.33447       -3.59088
C         -2.50049        2.64322        2.90581
C         -0.31683        3.86075        3.14653
C         -2.33227        5.00775        2.17765
C         -0.05229        6.03269       -0.08477
H         -2.25642        3.60564       -4.78660
H         -1.49295        2.19130       -4.08288
H         -2.96985        2.83879       -3.37047
H         -2.93041        5.16221       -2.23388
H         -1.43312        6.08600       -2.21440
H         -2.24198        5.76980       -3.74164
H          0.71790        3.41788       -3.75094
H          0.00930        4.81476       -4.55871
H          0.75610        4.99572       -2.97347
H         -2.88758        3.01080        3.85566
H         -3.34894        2.43396        2.25495
H         -1.99150        1.70200        3.10659
H         -0.59814        4.20601        4.14098
H          0.22119        2.91996        3.25892
H          0.37104        4.58875        2.72036
H         -3.17737        4.91932        1.49583
H         -2.71322        5.29884        3.15625
H         -1.69738        5.81425        1.81858
H         -0.22668        7.10574       -0.00310
H          0.45986        5.68146        0.80976
H          0.57855        5.83545       -0.95009
C          5.69180       -1.83270        2.67092
C          5.82704        1.60157        1.89085
C          3.65783        2.79381        1.74947
C          4.01324        1.12243        3.57845
C          4.59154       -4.17293        0.30218
C          4.27658       -3.31967       -2.03060
C          6.25383       -2.58289       -0.73129
H          6.04850        1.78399        0.83984
H          6.21651        2.43842        2.47008
H          6.36965        0.71035        2.19569
H          4.14758        3.61024        2.27972
H          3.73574        2.99395        0.68117
H          2.60533        2.82031        2.02704
H          4.47302        0.18468        3.88123
H          4.39013        1.90932        4.23122
H          2.93959        1.03193        3.74239
H          3.54211       -4.45857        0.37013
H          5.15008       -5.02695       -0.08011
H          4.94340       -3.96528        1.30987
H          3.27441       -3.74530       -2.01624
H          4.26768       -2.44297       -2.67780
H          4.93274       -4.06288       -2.48304
H          6.38085       -1.68890       -1.34089
H          6.82040       -3.39146       -1.19249
H          6.69472       -2.38723        0.24292
H          6.10892       -1.24897        3.49131
H          4.65858       -2.09608        2.90090
H          6.28389       -2.74146        2.56401
