58
-89.86500496
P          1.53754        0.08011        0.69981
C          1.53452        1.86869        0.84767
C          1.53690        2.60979       -0.31146
C          1.54333        3.99073       -0.24851
C          1.55606        4.61975        0.98065
C          1.56902        3.87243        2.14222
C          1.56147        2.49077        2.07518
H          1.57660        1.89787        2.97506
H          1.54358        2.09527       -1.25932
C          3.17461       -0.49223        0.22572
C          4.26097        0.30378        0.51074
C          5.53251       -0.11385        0.16056
C          5.70646       -1.32828       -0.47304
C          4.61420       -2.12426       -0.75608
C          3.34435       -1.70448       -0.40343
H          2.48456       -2.31250       -0.63338
H          4.10839        1.25137        1.00243
C          1.08693       -0.77813        2.26434
C          0.46476       -2.13850        1.97559
C         -1.04061       -2.10545        1.74782
P         -1.65162       -0.92158        0.46900
C         -1.72722        0.77531        1.07207
C         -1.79913        1.78662        0.14117
C         -1.86444        3.10476        0.55488
C         -1.86704        3.40169        1.90253
C         -1.81388        2.38431        2.83390
C         -1.75019        1.06777        2.41640
H         -1.73739        0.27088        3.14103
H         -1.80403        1.54059       -0.90924
C         -3.35666       -1.38947        0.11791
C         -3.74351       -1.90170       -1.09828
C         -5.06049       -2.25794       -1.31533
C         -5.99004       -2.09724       -0.30745
C         -5.60345       -1.58023        0.91305
C         -4.28236       -1.22598        1.12447
H         -3.96827       -0.81665        2.07177
H         -3.01162       -2.00962       -1.87932
Pd         0.12621       -0.57148       -1.02503
Cl         1.69255        0.10072       -2.49150
Cl        -1.11036       -1.54428       -2.61724
H         -1.40693       -3.08972        1.44528
H         -1.56360       -1.85865        2.67305
H          0.96029       -2.57486        1.09766
H          0.68693       -2.83377        2.80033
H          2.01516       -0.86644        2.83484
H          0.41511       -0.15094        2.84898
H          1.53998        4.57203       -1.15579
H          1.58208        4.36450        3.10084
H          6.38404        0.50909        0.37988
H          4.74912       -3.06943       -1.25584
H         -1.90777        3.89706       -0.17419
H         -1.82356        2.61552        3.88643
H         -5.36055       -2.65763       -2.27011
H         -6.32831       -1.45179        1.70005
H          1.55891        5.69624        1.03370
H          6.69590       -1.65411       -0.74975
H         -1.91131        4.42833        2.22763
H         -7.01845       -2.37361       -0.47412
