171
-217.84787101
P         -1.61364        0.42474       -0.38029
P          1.60030       -0.30868       -0.21930
C         -0.82532        1.49983       -1.58887
C          0.99862       -1.16079       -1.68026
C          0.05615        0.99160       -2.53717
C          0.73591        1.89138       -3.38104
C          0.48353        3.24845       -3.26938
C         -0.41385        3.73057       -2.34072
C         -1.06036        2.85038       -1.49600
C          1.23673       -2.50853       -1.79193
C          0.75814       -3.20913       -2.88187
C          0.02812       -2.55150       -3.84940
C         -0.22494       -1.19306       -3.75369
C          0.28283       -0.47461       -2.65421
Cl         1.41327        0.31013        2.98566
Cl        -1.73772       -0.34433        2.82740
C         -1.00638       -0.51367       -4.82350
C          1.72391        1.41697       -4.38880
H         -0.60477        4.78876       -2.26777
H         -1.75367        3.22104       -0.75902
H          1.80109       -3.01348       -1.02436
H          0.95519       -4.26443       -2.97602
H          1.00420        3.93105       -3.91975
H         -0.35454       -3.09535       -4.69657
C         -3.48098       -3.38338       -1.95065
C         -2.60602       -3.45764       -0.87370
C         -2.02158       -2.27823       -0.43296
C         -2.30509       -1.08523       -1.04992
C         -3.17552       -1.02628       -2.11032
C         -3.78640       -2.18304       -2.58113
H         -3.95611       -4.27941       -2.30292
H         -1.35463       -2.28585        0.41204
H         -3.38377       -0.06736       -2.55356
C         -4.79610        2.60138        2.00917
C         -3.46891        2.98750        2.15720
C         -2.51319        2.32955        1.39512
C         -2.87436        1.31681        0.54204
C         -4.18812        0.93923        0.41830
C         -5.18052        1.58141        1.14735
H         -5.55534        3.09657        2.58464
H         -1.47307        2.59513        1.48294
H         -4.43131        0.12780       -0.24397
C          4.22683       -3.06594        2.25360
C          4.82278       -2.05575        1.50807
C          3.99530       -1.22753        0.76357
C          2.63594       -1.41523        0.75469
C          2.06396       -2.41908        1.49674
C          2.84988       -3.25275        2.28261
H          4.84599       -3.72689        2.82980
H          4.41786       -0.42046        0.19198
H          0.99453       -2.53405        1.47441
C          3.93625        3.44847       -1.14396
C          2.86276        3.52612       -0.26558
C          2.15782        2.35970        0.00039
C          2.50205        1.18438       -0.61845
C          3.54774        1.12910       -1.50680
C          4.29615        2.26759       -1.78203
H          4.52304        4.33102       -1.31934
H          1.33964        2.35586        0.69910
H          3.77832        0.18685       -1.97429
Pd        -0.09521        0.03666        1.34328
C         -0.79380       -5.08798       -0.29589
C         -2.29180       -4.77099       -0.14384
C         -3.10043       -5.95148       -0.71497
C         -2.64584       -4.61695        1.34788
H         -0.52534       -5.98886        0.25554
H         -0.54139       -5.24707       -1.34347
H         -0.17790       -4.26978        0.07313
H         -2.86337       -6.11823       -1.76557
H         -2.87302       -6.87145       -0.17649
H         -4.17177       -5.77237       -0.62565
H         -2.07892       -3.81127        1.81180
H         -3.70445       -4.38851        1.46925
H         -2.43295       -5.53402        1.89686
C         -4.98678       -0.74917       -4.30880
C         -4.81779       -2.16273       -3.71834
C         -6.18021       -2.62442       -3.16839
C         -4.36600       -3.11399       -4.84229
H         -5.34516       -0.04901       -3.55441
H         -4.04556       -0.37358       -4.70803
H         -5.71175       -0.75433       -5.12262
H         -6.94215       -2.60644       -3.94743
H         -6.12547       -3.64005       -2.77810
H         -6.50943       -1.97326       -2.35908
H         -4.30219       -4.14284       -4.49043
H         -5.06719       -3.09191       -5.67636
H         -3.38470       -2.83019       -5.21982
C         -1.90544        3.57051        4.03350
C         -3.02755        4.10009        3.11811
C         -4.19058        4.57949        4.00773
C         -2.50865        5.29337        2.29726
H         -1.01996        3.29355        3.46326
H         -1.60630        4.32493        4.76077
H         -2.23916        2.68798        4.57874
H         -4.98954        5.01762        3.41003
H         -4.60401        3.75455        4.58773
H         -3.85164        5.34136        4.70963
H         -1.67254        4.99908        1.66500
H         -3.29259        5.68587        1.64986
H         -2.17099        6.09956        2.94825
C         -7.14282        0.67282        2.41240
C         -6.65795        1.17764        1.04138
C         -6.86673        0.05529        0.00471
C         -7.49208        2.39796        0.61010
H         -8.18551        0.35898        2.36674
H         -6.54711       -0.17886        2.74038
H         -7.06068        1.44987        3.17147
H         -6.31775       -0.84420        0.28300
H         -7.92060       -0.21260       -0.06912
H         -6.53614        0.37028       -0.98490
H         -7.42425        3.20363        1.34007
H         -7.14267        2.78331       -0.34763
H         -8.54400        2.13327        0.50392
C          7.09180       -2.82766        2.36774
C          6.33799       -1.80921        1.49156
C          6.62414       -0.39394        2.02815
C          6.85646       -1.92809        0.04622
H          8.16508       -2.63935        2.34278
H          6.77044       -2.76446        3.40720
H          6.92736       -3.84577        2.01534
H          6.15149        0.36777        1.40903
H          6.24183       -0.28310        3.04262
H          7.69492       -0.19184        2.04576
H          6.64042       -2.91585       -0.36041
H          6.38901       -1.18961       -0.60373
H          7.93444       -1.77321        0.00407
C          2.85526       -4.32774        4.56132
C          2.23560       -4.36113        3.15013
C          2.51357       -5.72232        2.49113
C          0.71216       -4.17805        3.30123
H          3.92100       -4.55010        4.53863
H          2.72469       -3.34496        5.01395
H          2.38160       -5.06339        5.21118
H          2.08144       -5.76161        1.49128
H          3.58479       -5.89988        2.39922
H          2.08557       -6.53545        3.07716
H          0.29676       -4.92176        3.98100
H          0.47490       -3.19154        3.69954
H          0.20589       -4.29465        2.34536
C          1.19561        4.75639        1.20531
C          2.51352        4.85756        0.41241
C          2.34908        5.95442       -0.65671
C          3.64582        5.24000        1.38104
H          1.27943        4.03913        2.02141
H          0.93045        5.71926        1.64163
H          0.37717        4.44754        0.55582
H          3.27668        6.12308       -1.20194
H          1.58249        5.67554       -1.37874
H          2.05588        6.90057       -0.20213
H          3.78014        4.46818        2.13874
H          4.59153        5.35794        0.85292
H          3.42516        6.17855        1.88915
C          5.63834        0.89633       -3.45431
C          5.53744        2.22849       -2.68501
C          6.79125        2.38511       -1.80616
C          5.47973        3.37596       -3.71222
H          6.49859        0.90071       -4.12355
H          5.76034        0.05493       -2.77302
H          4.74867        0.72377       -4.05903
H          6.77562        3.33167       -1.26663
H          6.84881        1.58286       -1.07065
H          7.69830        2.35650       -2.40965
H          5.49526        4.35020       -3.22585
H          6.33284        3.33382       -4.38922
H          4.57254        3.31535       -4.31203
H         -1.79834       -1.16113       -5.19999
H          2.62681        2.02721       -4.35945
H         -0.36571       -0.24965       -5.66578
H         -1.47409        0.40013       -4.45432
H          1.31276        1.47778       -5.39735
H          2.01979        0.38342       -4.20458
