45
-71.81621569
C          0.46506        1.83131        3.02165
P         -0.15837        0.86070        1.60733
P         -0.06708        0.75239       -1.56125
C          0.69186        1.72214       -2.90707
Cl         2.86814       -0.07962        1.82341
H         -0.33577        2.02237        3.73016
H         -0.04012        1.91869       -3.68506
Cl         2.96448       -0.30023       -1.50205
C         -1.38319        1.76911        0.64695
C         -1.34557        1.71791       -0.72926
C         -2.29591        2.38664       -1.47376
C         -3.28961        3.10629       -0.83376
C         -3.33105        3.15089        0.54624
C         -2.37706        2.47815        1.28948
H         -2.25798        2.33908       -2.55020
H         -4.03304        3.62888       -1.41292
H         -4.10773        3.70694        1.04501
H         -2.40541        2.49533        2.36705
Pd         1.50792        0.32057        0.08722
H          1.52181        1.16788       -3.33605
H          0.85963        2.78002        2.66921
H          1.06121        2.66703       -2.51881
C         -1.65825       -3.25475       -3.00149
C         -0.30086       -3.06547       -2.83145
C          0.17317       -1.83725       -2.41004
C         -0.70765       -0.80972       -2.16425
C         -2.06129       -0.99297       -2.33267
C         -2.53967       -2.22065       -2.75319
H         -2.03073       -4.21194       -3.32810
H          0.38735       -3.87247       -3.02193
H          1.22711       -1.67005       -2.25543
H         -2.73807       -0.18104       -2.12239
H         -3.59891       -2.36999       -2.88355
C         -1.87689       -3.21393        2.66010
C         -1.37781       -2.41895        3.67388
C         -0.85118       -1.17353        3.38124
C         -0.83021       -0.73390        2.07743
C         -1.32535       -1.52250        1.06588
C         -1.85100       -2.76827        1.35352
H         -2.28476       -4.18492        2.88906
H         -1.39595       -2.76925        4.69286
H         -0.45419       -0.54694        4.16297
H         -1.28431       -1.16210        0.05278
H         -2.23355       -3.38755        0.55899
H          1.25936        1.28541        3.52273
