171
-217.84672582
P         -1.61968        0.37450       -0.36633
P          1.65020       -0.35667       -0.21125
C         -0.82561        1.39232       -1.61602
C          1.00110       -1.28381       -1.60695
C          0.03319        0.82313       -2.54967
C          0.69949        1.66629       -3.45951
C          0.46200        3.03017       -3.41811
C         -0.40904        3.57256       -2.49705
C         -1.04710        2.74767       -1.59204
C          1.22402       -2.63846       -1.65088
C          0.69165       -3.39797       -2.67375
C         -0.07587       -2.79136       -3.64542
C         -0.31257       -1.42694       -3.62013
C          0.24713       -0.64965       -2.58803
Cl         1.45031        0.20466        2.96577
Cl        -1.73651       -0.36764        2.80978
C         -1.14263       -0.80799       -4.68988
C          1.64293        1.11743       -4.47202
H         -0.59080        4.63469       -2.48108
H         -1.72441        3.16401       -0.86448
H          1.81969       -3.10550       -0.88374
H          0.87453       -4.45943       -2.70985
H          0.97111        3.67000       -4.11908
H         -0.50323       -3.38047       -4.43931
C         -3.68985       -3.31309       -1.96249
C         -2.74640       -3.45829       -0.95367
C         -2.11466       -2.31262       -0.48684
C         -2.40441       -1.08850       -1.03559
C         -3.32755       -0.96275       -2.04482
C         -3.99749       -2.08161       -2.52681
H         -4.21705       -4.18434       -2.30485
H         -1.40000       -2.36236        0.31615
H         -3.52918        0.01860       -2.43956
C         -4.64472        2.71379        2.07747
C         -3.30216        3.06161        2.16817
C         -2.39578        2.35898        1.38493
C         -2.81789        1.33469        0.57421
C         -4.14605        0.99317        0.51203
C         -5.09136        1.68524        1.25764
H         -5.36713        3.24700        2.66613
H         -1.34655        2.59813        1.42096
H         -4.43872        0.17029       -0.11484
C          4.40059       -2.87388        2.37558
C          3.05606       -3.21779        2.30023
C          2.23745       -2.45788        1.47498
C          2.74294       -1.38476        0.78403
C          4.07007       -1.04885        0.88563
C          4.93124       -1.79572        1.67876
H          5.05684       -3.45054        2.99970
H          1.19043       -2.69197        1.38336
H          4.42719       -0.18783        0.35004
C          3.86440        3.42763       -1.31148
C          2.81679        3.50406       -0.40293
C          2.14365        2.33019       -0.08925
C          2.49675        1.14687       -0.68805
C          3.52452        1.08982       -1.59746
C          4.23743        2.23793       -1.92401
H          4.42114        4.31942       -1.53279
H          1.34638        2.32530        0.63343
H          3.77253        0.13814       -2.03597
Pd        -0.07487       -0.04401        1.33332
C         -3.71800       -5.32811        0.39642
C         -2.46676       -4.84356       -0.35645
C         -1.28255       -4.80077        0.62743
C         -2.12140       -5.83417       -1.48447
H         -3.98061       -4.63217        1.19302
H         -4.57365       -5.40745       -0.27345
H         -3.54980       -6.30736        0.84423
H         -1.05947       -5.79662        1.00999
H         -0.38733       -4.42232        0.13522
H         -1.50446       -4.16291        1.48251
H         -2.95520       -5.96168       -2.17344
H         -1.26496       -5.48099       -2.05739
H         -1.87431       -6.81520       -1.07907
C         -6.44677       -2.35814       -2.95648
C         -5.09638       -1.98528       -3.59500
C         -4.79010       -2.95761       -4.75040
C         -5.20299       -0.56014       -4.17191
H         -6.43096       -3.37612       -2.56847
H         -6.67946       -1.68958       -2.12843
H         -7.25543       -2.28908       -3.68385
H         -3.82187       -2.73850       -5.19784
H         -4.77298       -3.99131       -4.40779
H         -5.54561       -2.88177       -5.53227
H         -5.47689        0.15768       -3.39903
H         -4.25963       -0.24499       -4.61676
H         -5.96696       -0.51323       -4.94783
C         -3.89113        4.64609        4.07091
C         -2.80220        4.19125        3.07955
C         -2.39413        5.39022        2.20715
C         -1.58890        3.69999        3.89510
H         -4.24330        3.80910        4.67365
H         -3.50280        5.40504        4.75003
H         -4.74383        5.08098        3.55024
H         -2.00224        6.20396        2.81709
H         -1.62725        5.10654        1.48851
H         -3.24922        5.76760        1.64660
H         -1.84684        2.81010        4.46884
H         -0.74694        3.44889        3.25245
H         -1.25171        4.46634        4.59266
C         -7.39674        2.56610        0.79834
C         -6.58360        1.32687        1.21620
C         -7.02864        0.85781        2.61305
C         -6.86758        0.19758        0.20587
H         -8.45935        2.33202        0.73575
H         -7.27758        3.37955        1.51290
H         -7.07271        2.92722       -0.17759
H         -8.08176        0.57722        2.61389
H         -6.44744       -0.00777        2.93046
H         -6.89112        1.64284        3.35575
H         -6.33890       -0.71589        0.47783
H         -7.93177       -0.03565        0.17436
H         -6.56296        0.48829       -0.79933
C          2.15012       -5.53730        2.08354
C          2.46286       -4.40337        3.07424
C          1.16963       -3.96057        3.78843
C          3.44084       -4.93207        4.14168
H          3.05982       -5.88084        1.59139
H          1.69694       -6.38838        2.59154
H          1.46294       -5.20019        1.30950
H          1.36452       -3.11279        4.44484
H          0.40001       -3.66188        3.07885
H          0.76145       -4.76994        4.39333
H          4.34406       -5.33631        3.68547
H          3.72682       -4.14051        4.83415
H          2.98311       -5.73287        4.72237
C          7.27188       -2.65962        1.40311
C          6.41959       -1.44622        1.81872
C          6.71580       -1.07804        3.28364
C          6.80802       -0.25188        0.92464
H          8.33524       -2.42983        1.46876
H          7.07798       -3.51967        2.04281
H          7.05215       -2.94982        0.37581
H          6.10355       -0.23310        3.59830
H          6.50253       -1.91190        3.95146
H          7.76273       -0.80456        3.41378
H          6.61111       -0.47024       -0.12478
H          6.25331        0.64425        1.20236
H          7.86955       -0.02448        1.02139
C          2.23638        5.91196       -0.82908
C          2.46770        4.84438        0.25701
C          3.63012        5.27343        1.16912
C          1.18735        4.73405        1.10592
H          1.44672        5.60090       -1.51182
H          1.94234        6.86254       -0.38438
H          3.13695        6.08606       -1.41631
H          3.81234        4.52277        1.93799
H          4.55069        5.39908        0.59999
H          3.40961        6.21880        1.66452
H          0.91992        5.70052        1.53282
H          0.35062        4.39334        0.49706
H          1.32230        4.03643        1.93199
C          5.26337        3.26540       -3.98101
C          5.44675        2.21374       -2.86994
C          5.62293        0.83227       -3.53002
C          6.71748        2.53733       -2.06318
H          4.35070        3.08067       -4.54549
H          5.20386        4.27261       -3.57088
H          6.09995        3.24251       -4.67921
H          5.81442        0.06132       -2.78398
H          4.73540        0.55158       -4.09628
H          6.46731        0.83788       -4.21916
H          6.86170        1.81175       -1.26348
H          7.60108        2.51726       -2.70086
H          6.65431        3.52563       -1.60894
H         -1.51474        0.17247       -4.38969
H          1.16782        1.05033       -5.45161
H         -2.00699       -1.43109       -4.91871
H         -0.56694       -0.68534       -5.60824
H          1.99047        0.12122       -4.19508
H          2.52077        1.75586       -4.57007
