87
-129.18703072
P         -1.56533       -0.29383       -0.36350
P          1.69512        0.37217        0.06130
C         -1.21652        0.97320       -1.58812
C          1.53863       -0.69635       -1.38923
C         -0.15876        0.80318       -2.47300
C          0.10925        1.81816       -3.41321
C         -0.69463        2.94582       -3.43682
C         -1.74242        3.09222       -2.55256
C         -1.99996        2.10050       -1.62694
C          2.27867       -1.85479       -1.36591
C          2.15973       -2.78493       -2.37946
C          1.27910       -2.55560       -3.41344
C          0.51546       -1.40214       -3.45645
C          0.65502       -0.44128       -2.43617
Cl         1.14950        0.14919        3.23940
Cl        -1.50459       -1.51919        2.68366
H         -2.35524        3.97827       -2.58009
H         -2.81892        2.20485       -0.93491
H          2.95231       -2.03780       -0.54524
H          2.74335       -3.69058       -2.35437
H         -0.48658        3.71919       -4.15664
H          1.16993       -3.28380       -4.19922
C         -2.16649       -4.32602       -2.36109
C         -1.27373       -4.21997       -1.30338
C         -1.11390       -2.98204       -0.69283
C         -1.82961       -1.89167       -1.12938
C         -2.71872       -2.00567       -2.17198
C         -2.89022       -3.23055       -2.79004
H         -2.28802       -5.27756       -2.85004
C         -0.46348       -5.38800       -0.86395
H         -0.41729       -2.87238        0.12120
H         -3.26114       -1.13465       -2.50513
H         -3.58094       -3.32705       -3.61160
C         -5.15703        0.91642        2.16621
C         -5.21787       -0.22634        1.39322
C         -4.13478       -0.59236        0.61666
C         -3.00139        0.18604        0.61728
C         -2.93766        1.32276        1.38986
C         -4.01832        1.71027        2.17169
H         -5.99633        1.19810        2.77897
H         -6.10604       -0.83670        1.40021
H         -4.16394       -1.48856        0.01902
H         -2.04007        1.91731        1.39077
C         -3.92810        2.92643        3.02462
C          5.61174       -0.46473        2.22889
C          5.46958        0.68705        1.48062
C          4.27932        0.94108        0.82533
C          3.24070        0.04471        0.92415
C          3.38122       -1.10390        1.66863
C          4.57244       -1.37920        2.32898
H          6.53435       -0.66020        2.74840
H          6.28366        1.38979        1.41055
H          4.15279        1.83904        0.24307
H          2.55225       -1.78668        1.75797
C          4.70373       -2.60317        3.16515
C          1.08545        4.81057       -0.69583
C          1.96846        4.09957       -1.48507
C          2.17116        2.75185       -1.25257
C          1.48861        2.12998       -0.23397
C          0.63252        2.84242        0.57404
C          0.41200        4.19567        0.35071
H          0.91211        5.85575       -0.88763
H          2.48890        4.59084       -2.29075
H          2.84089        2.17646       -1.87184
H          0.14582        2.34934        1.39767
C         -0.56284        4.94961        1.18457
Pd        -0.05641       -0.36481        1.41327
C          1.23760        1.70651       -4.37876
C         -0.44140       -1.20988       -4.58185
H          1.81053        2.63416       -4.41593
H          1.92497        0.90695       -4.10034
H          0.86947        1.49983       -5.38442
H         -0.99256       -2.12942       -4.78375
H         -1.17308       -0.43317       -4.35721
H          0.08350       -0.92619       -5.49478
H         -0.99914       -6.32396       -1.02846
H          0.47670       -5.43526       -1.41529
H         -0.22688       -5.32360        0.19913
H         -3.44777        3.74543        2.48724
H         -4.91642        3.26785        3.33547
H         -3.34321        2.72467        3.92313
H          4.29782       -2.43324        4.16332
H          4.16382       -3.44072        2.72094
H          5.74803       -2.90018        3.27131
H         -1.56115        4.90381        0.74684
H         -0.61848        4.53744        2.19320
H         -0.27944        5.99952        1.27036
