111
-148.55606098
P         -1.67750       -2.79826       -0.18627
P         -0.49292        0.10407       -0.54363
C         -1.53252       -2.08131       -1.84862
C         -1.08264       -0.78606       -1.99559
C         -0.52450       -4.22913        0.01461
C          0.52133       -3.92342        1.06629
C         -1.84137       -2.83090       -2.96571
H         -2.15680       -3.85468       -2.84858
C         -1.72190       -2.27090       -4.22604
H         -1.96688       -2.85476       -5.09823
C         -1.28331       -0.96817       -4.36838
H         -1.18457       -0.53498       -5.35009
C         -0.95219       -0.22601       -3.24893
H         -0.57451        0.78004       -3.34235
Pd        -1.43599       -1.00623        1.24825
Cl        -2.56442       -2.08893        2.85037
Cl        -1.01660        0.83107        2.47933
C         -1.46179       -5.39885        0.37874
C         -3.29845       -3.64427        0.10435
H          1.19917       -4.76751        1.21398
H          1.12073       -3.05241        0.79336
H          0.04899       -3.70436        2.02615
H         -1.42858       -5.54916        1.46651
H         -1.08945       -6.33779       -0.05792
H         -3.56042       -3.43723        1.15013
C         -2.93115       -5.13037       -0.05614
C         -4.39177       -3.14732       -0.81728
H         -0.06446       -4.38963       -0.96917
H         -3.06477       -5.41879       -1.10778
H         -3.63145       -5.76076        0.51312
H         -5.34335       -3.64137       -0.60828
H         -4.53879       -2.07009       -0.71081
H         -4.14597       -3.34175       -1.86155
C         -0.75812        4.64410       -0.66394
C          0.38012        3.98590       -1.20117
C          0.42222        2.60253       -1.14541
C         -0.63776        1.88111       -0.66116
C         -1.79134        2.50526       -0.26565
C         -1.90014        3.88631       -0.29036
O         -0.72173        6.04135       -0.42162
C          1.57278        4.71380       -1.84373
H          1.30280        2.06945       -1.46343
H         -2.60531        1.89812        0.09353
C         -3.25176        4.50742        0.10003
C          3.74929       -1.25964        0.39069
C          3.13580       -0.25864        1.18680
C          1.84118        0.12091        0.87747
C          1.19971       -0.38484       -0.22097
C          1.82381       -1.27705       -1.05249
C          3.11353       -1.70970       -0.79504
O          4.97806       -1.84159        0.80144
C          3.82650        0.38796        2.39684
H          1.29290        0.79072        1.51696
H          1.27917       -1.64926       -1.90188
C          3.78616       -2.68257       -1.77603
C          1.26150        6.18724       -2.15853
C          2.78695        4.63324       -0.90314
C          1.92607        4.03166       -3.18395
C         -3.45092        4.37900        1.61958
C         -3.35848        5.98637       -0.31065
C         -4.39078        3.75600       -0.62392
C         -0.21141        6.36145        0.86217
H          1.10066        6.75999       -1.24840
H          2.08274        6.65509       -2.70098
H          0.36164        6.26819       -2.76728
H          2.57661        5.10858        0.05303
H          3.05860        3.59667       -0.70592
H          3.65277        5.12883       -1.34148
H          2.26747        3.00793       -3.03997
H          1.05882        4.00809       -3.84325
H          2.72305        4.57046       -3.69581
H         -4.41658        4.78339        1.92170
H         -3.41113        3.33560        1.93081
H         -2.67721        4.91582        2.16478
H         -3.15107        6.10599       -1.37344
H         -4.35571        6.37833       -0.11205
H         -2.64896        6.60055        0.23863
H         -5.35381        4.22524       -0.42425
H         -4.23094        3.76223       -1.70176
H         -4.46255        2.71932       -0.29948
H         -0.21197        7.44414        0.98988
H         -0.83021        5.90729        1.63419
H          0.80579        5.98708        0.96458
C          4.82800       -2.96822        1.65657
C          5.35132        0.45639        2.19800
C          3.33328        1.84090        2.58909
C          3.48925       -0.41631        3.66150
C          5.30723       -2.45124       -1.82686
C          3.48437       -4.12767       -1.35105
C          3.24867       -2.47144       -3.20993
H          5.59458        0.99259        1.28130
H          5.83219        0.97067        3.02972
H          5.78835       -0.53639        2.12870
H          3.90976        2.34599        3.36369
H          3.43995        2.41129        1.66689
H          2.28870        1.87644        2.89440
H          3.83459       -1.44415        3.57928
H          3.95459        0.02644        4.54168
H          2.41209       -0.44130        3.82543
H          5.77728       -3.09626       -2.56881
H          5.52954       -1.41684       -2.08678
H          5.77244       -2.66125       -0.86692
H          2.41132       -4.31527       -1.35902
H          3.95511       -4.83999       -2.02811
H          3.84822       -4.32835       -0.34642
H          2.20527       -2.77113       -3.29784
H          3.81339       -3.06782       -3.92618
H          3.33219       -1.42589       -3.50540
H          3.77161       -3.18562        1.81900
H          5.31282       -3.83466        1.20701
H          5.30867       -2.76869        2.61409
