45
-71.81602175
C          0.67442        1.76097        3.00502
P         -0.05655        0.82821        1.61656
P         -0.16321        0.78210       -1.52621
C          0.52924        1.76545       -2.89829
Cl         3.02744       -0.11394        1.60766
H          1.05800        2.71169        2.64590
H          1.32414        1.20764       -3.38516
Cl         2.86640       -0.35092       -1.67528
C         -1.33127        1.77398        0.76545
C         -1.37952        1.75062       -0.61050
C         -2.36416        2.44668       -1.28193
C         -3.30582        3.16579       -0.56702
C         -3.26119        3.18255        0.81367
C         -2.27282        2.48247        1.48310
H         -2.39321        2.42085       -2.35931
H         -4.07611        3.70996       -1.08830
H         -3.99749        3.73845        1.37048
H         -2.23357        2.47820        2.56039
Pd         1.52408        0.30510       -0.00076
H          0.93459        2.69828       -2.51682
H          1.49271        1.19456        3.44047
H         -0.24457        1.98571       -3.62795
C         -1.89775       -3.17439       -2.94242
C         -0.53000       -3.00846       -2.84815
C         -0.01300       -1.79526       -2.43395
C         -0.86151       -0.75910       -2.12014
C         -2.22536       -0.91902       -2.21341
C         -2.74672       -2.13174       -2.62616
H         -2.30362       -4.12005       -3.26275
H          0.13318       -3.82218       -3.09152
H          1.05063       -1.64719       -2.33714
H         -2.87592       -0.10108       -1.95034
H         -3.81396       -2.26300       -2.69714
C         -1.75582       -3.24366        2.71203
C         -1.81523       -2.77294        1.41540
C         -1.29309       -1.52880        1.11471
C         -0.71686       -0.76652        2.10303
C         -0.65274       -1.23123        3.39674
C         -1.17543       -2.47515        3.70265
H         -2.16054       -4.21355        2.95105
H         -2.26139       -3.37152        0.63837
H         -1.31757       -1.14944        0.10822
H         -0.19301       -0.62530        4.16014
H         -1.12697       -2.84503        4.71368
H         -0.07431        1.94760        3.76947
