58
-89.86455404
P          1.94482       -0.32165        0.23775
C          1.57913        1.40232        0.61401
C          1.19148        2.21829       -0.42455
C          0.89198        3.54727       -0.18604
C          0.99155        4.05403        1.09367
C          1.39755        3.23772        2.13013
C          1.69729        1.90989        1.88752
H          2.03795        1.27694        2.68976
H          1.12300        1.81060       -1.42108
C          3.63171       -0.35851       -0.38806
C          4.62642        0.15521        0.41373
C          5.93998        0.14179       -0.02211
C          6.24867       -0.38604       -1.26019
C          5.24831       -0.89684       -2.06294
C          3.93884       -0.88012       -1.62278
H          3.14651       -1.26145       -2.24292
H          4.37036        0.56965        1.37623
C          1.90042       -1.39945        1.73716
C          0.52172       -1.82825        2.22416
C         -0.44854       -0.67797        2.47628
P         -1.41036       -0.26803        0.95876
C         -1.91903        1.45197        0.89605
C         -1.94829        2.23428        2.02816
C         -2.35229        3.55420        1.93777
C         -2.72888        4.07843        0.71660
C         -2.71012        3.28573       -0.41389
C         -2.30687        1.96686       -0.31929
H         -2.29793        1.32368       -1.18477
H         -1.65673        1.81352        2.97664
C         -2.84384       -1.34879        0.90416
C         -2.72367       -2.65442        0.48630
C         -3.83975       -3.47092        0.45340
C         -5.06832       -2.97438        0.84196
C         -5.18434       -1.66413        1.26207
C         -4.06645       -0.84971        1.29280
H         -4.14119        0.17696        1.61425
H         -1.76312       -3.02759        0.16994
Pd        -0.06952       -0.72133       -0.88027
Cl         1.08391       -1.42603       -2.66816
Cl        -2.00274       -0.84797       -2.03662
H         -1.19061       -0.92986        3.23840
H          0.07509        0.21034        2.82777
H          0.07249       -2.51717        1.49619
H          0.63788       -2.42545        3.14210
H          2.51213       -2.27237        1.49550
H          2.43502       -0.86301        2.52249
H          0.57636        4.18271       -0.99706
H          1.48173        3.63499        3.12835
H          6.71953        0.54366        0.60405
H          5.48636       -1.30500       -3.03150
H         -2.36996        4.17306        2.81978
H         -3.00922        3.69136       -1.36629
H         -3.75020       -4.49165        0.11968
H         -6.14321       -1.27506        1.56284
H          0.75247        5.08768        1.28354
H          7.27107       -0.39702       -1.60129
H         -3.04061        5.10777        0.64637
H         -5.93859       -3.60966        0.81426
