111
-148.55564879
P         -2.27216       -2.16537       -1.31718
P          0.14851       -0.19785       -0.58271
C         -1.18067       -1.53541       -2.61542
C         -0.15217       -0.67335       -2.29889
C         -2.40329       -4.00819       -1.35376
C         -1.52029       -4.64043       -0.29907
C         -1.38408       -1.91859       -3.92535
H         -2.18056       -2.60600       -4.16068
C         -0.56397       -1.42235       -4.92374
H         -0.72360       -1.71852       -5.94767
C          0.45740       -0.54752       -4.60805
H          1.09560       -0.15904       -5.38460
C          0.66464       -0.17436       -3.29201
H          1.46195        0.50334       -3.03313
Pd        -1.41879       -1.36741        0.66215
Cl        -3.20706       -2.23047        1.70464
Cl        -0.45578       -0.53693        2.51173
C         -3.91095       -4.24278       -1.14993
C         -4.05410       -1.70786       -1.53934
H         -1.59824       -5.73005       -0.31374
H         -0.47107       -4.37277       -0.44660
H         -1.80751       -4.30351        0.69878
H         -4.10891       -4.34187       -0.07355
H         -4.21375       -5.20242       -1.59615
H         -4.35742       -1.24392       -0.59143
C         -4.75378       -3.06948       -1.72446
C         -4.25560       -0.75336       -2.69916
H         -2.09708       -4.32213       -2.36015
H         -4.92402       -3.23620       -2.79683
H         -5.75542       -3.04848       -1.26932
H         -3.99497       -1.23064       -3.64482
H         -5.29596       -0.42824       -2.77326
H         -3.62714        0.13387       -2.60437
C         -1.26833        4.04065        0.29084
C         -2.17633        3.07327       -0.21290
C         -1.68907        1.81038       -0.51043
C         -0.38956        1.47293       -0.23158
C          0.44670        2.35902        0.39653
C          0.02980        3.64303        0.70085
O         -1.63379        5.41200        0.33482
C         -3.66767        3.36755       -0.43708
H         -2.32457        1.06400       -0.95432
H          1.43737        2.03207        0.65548
C          0.98888        4.58727        1.44149
C          4.41196       -0.93405        0.85089
C          4.15956        0.09448       -0.09246
C          2.85394        0.29774       -0.50766
C          1.83784       -0.51622       -0.07671
C          2.09831       -1.58387        0.74196
C          3.38007       -1.84275        1.19742
O          5.68261       -1.02896        1.47827
C          5.26813        1.00828       -0.63896
H          2.61105        1.11614       -1.16262
H          1.27455       -2.20564        1.04653
C          3.61663       -3.06611        2.09626
C         -3.89729        3.71400       -1.91559
C         -4.51521        2.12966       -0.06682
C         -4.15946        4.52121        0.45627
C          1.90956        3.78890        2.39253
C          1.85864        5.33214        0.41789
C          0.21385        5.59590        2.30874
C         -1.35152        6.11254       -0.86986
H         -4.94966        3.91896       -2.11028
H         -3.32276        4.59195       -2.20485
H         -3.58934        2.88964       -2.55826
H         -4.33749        1.29985       -0.74633
H         -4.28716        1.79397        0.94451
H         -5.57938        2.35952       -0.11279
H         -5.23376        4.66943        0.34949
H         -3.94799        4.31132        1.50421
H         -3.67203        5.45817        0.19958
H          2.50307        4.46096        3.01187
H          1.32267        3.15308        3.05491
H          2.60809        3.15838        1.84535
H          2.42155        4.62847       -0.19502
H          1.24797        5.93825       -0.24786
H          2.56969        5.99109        0.91553
H          0.89441        6.22063        2.88666
H         -0.39857        6.25457        1.69758
H         -0.44472        5.07694        3.00438
H         -2.28224        6.42964       -1.33966
H         -0.75873        6.99909       -0.64409
H         -0.79971        5.47314       -1.56008
C          5.79472       -0.26574        2.67311
C          6.61495        0.26596       -0.71165
C          4.93320        1.47174       -2.07507
C          5.39480        2.24903        0.25809
C          5.03643       -3.62977        1.90659
C          3.39514       -2.66543        3.56275
C          2.62976       -4.20243        1.74211
H          6.96330       -0.02273        0.27676
H          6.52202       -0.63938       -1.31054
H          7.38437        0.89298       -1.16148
H          5.77271        2.01137       -2.51286
H          4.71289        0.61848       -2.71607
H          4.07739        2.14492       -2.09304
H          4.46172        2.81116        0.27098
H          5.62932        1.97299        1.28338
H          6.18153        2.91196       -0.10109
H          5.79291       -2.91205        2.21379
H          5.18130       -4.53395        2.49729
H          5.21484       -3.87566        0.86032
H          4.08488       -1.88132        3.86558
H          2.38255       -2.29028        3.70987
H          3.54019       -3.51704        4.22686
H          2.66366       -4.42744        0.67644
H          1.60526       -3.94468        2.00653
H          2.87899       -5.11403        2.28470
H          6.04161       -0.92424        3.50574
H          6.59673        0.46460        2.56733
H          4.85745        0.25104        2.88365
