111
-148.55624001
P         -2.48050       -2.06590       -1.05975
P          0.13846       -0.37780       -0.52247
C         -1.32900       -1.73785       -2.42092
C         -0.17027       -1.03475       -2.17220
C         -3.24069       -3.74873       -1.18713
C         -2.67443       -4.68773       -0.14445
C         -1.60822       -2.17339       -3.70047
H         -2.52559       -2.70456       -3.89456
C         -0.71673       -1.91112       -4.72656
H         -0.93337       -2.25113       -5.72609
C          0.44804       -1.21232       -4.47241
H          1.14079       -1.00684       -5.27180
C          0.72030       -0.76840       -3.19081
H          1.61732       -0.20837       -2.97683
Pd        -1.35451       -1.47934        0.86388
Cl        -3.07987       -2.23840        2.07621
Cl        -0.08478       -0.84792        2.60985
C         -4.74644       -3.45875       -1.04047
C         -3.99976       -1.01223       -1.11513
H         -1.59264       -4.79621       -0.25340
H         -2.86551       -4.31040        0.86120
H         -3.12453       -5.68074       -0.21465
H         -5.02738       -3.58200        0.01455
H         -5.33702       -4.20559       -1.59257
H         -4.15695       -0.65154       -0.08967
C         -5.10081       -2.01640       -1.50291
C         -3.83244        0.14720       -2.07270
H         -3.01871       -4.11572       -2.19722
H         -5.22482       -2.00130       -2.59453
H         -6.07091       -1.69871       -1.09124
H         -3.61268       -0.21038       -3.08038
H         -4.73795        0.75609       -2.12558
H         -3.00707        0.79366       -1.76708
C         -1.13898        3.98255       -0.18873
C         -1.03504        3.38586       -1.47422
C         -0.63101        2.06308       -1.55258
C         -0.42073        1.32112       -0.42004
C         -0.65072        1.85634        0.81930
C         -1.04748        3.17202        0.97346
O         -1.24735        5.39138       -0.06310
C         -1.34989        4.12171       -2.78771
H         -0.46495        1.59875       -2.50914
H         -0.50030        1.22570        1.67881
C         -1.36710        3.65840        2.39636
C          4.42676       -0.78586        0.95169
C          3.75695        0.45983        1.05206
C          2.45455        0.53953        0.59135
C          1.84435       -0.53136       -0.00697
C          2.51953       -1.70854       -0.19507
C          3.82901       -1.85484        0.23483
O          5.67590       -0.97364        1.60096
C          4.39479        1.70354        1.69050
H          1.88750        1.44530        0.71283
H          2.00111       -2.52025       -0.67588
C          4.56556       -3.17334       -0.04953
C         -2.11826        5.43413       -2.55412
C         -0.03827        4.41978       -3.53250
C         -2.24453        3.22968       -3.67661
C         -2.27293        2.62209        3.09913
C         -0.05837        3.80295        3.19122
C         -2.12471        4.99702        2.40139
C          0.01507        6.03348        0.00694
H         -2.41489        5.88928       -3.49879
H         -3.01750        5.25338       -1.96623
H         -1.50918        6.15769       -2.01752
H          0.50482        3.50015       -3.74823
H         -0.23361        4.92390       -4.47863
H          0.61361        5.05916       -2.94025
H         -3.16061        2.96095       -3.15175
H         -2.52428        3.75077       -4.59183
H         -1.74001        2.31017       -3.96860
H         -2.58099        2.97824        4.08171
H         -3.17155        2.43579        2.51177
H         -1.76407        1.67081        3.24519
H         -0.25700        4.12452        4.21319
H          0.47604        2.85452        3.23643
H          0.60282        4.53515        2.73157
H         -3.02176        4.93296        1.78653
H         -2.42341        5.27561        3.41168
H         -1.50734        5.80085        2.00752
H         -0.13356        7.10641        0.13038
H          0.58422        5.64890        0.85180
H          0.57848        5.85120       -0.90670
C          5.56693       -1.45238        2.93569
C          5.91565        1.73050        1.45534
C          3.81853        2.99542        1.06514
C          4.08866        1.71228        3.19599
C          4.30843       -4.15732        1.10181
C          4.05764       -3.80821       -1.36423
C          6.07772       -2.94027       -0.22128
H          6.13985        1.68456        0.39017
H          6.35813        2.64202        1.85637
H          6.40673        0.88792        1.93556
H          4.36022        3.87187        1.42013
H          3.89903        2.96979       -0.02127
H          2.77171        3.14045        1.32813
H          4.49938        0.83354        3.68713
H          4.51095        2.59488        3.67568
H          3.01281        1.71510        3.36957
H          3.24175       -4.35150        1.21145
H          4.80845       -5.10864        0.92177
H          4.67047       -3.76118        2.04742
H          4.10724       -3.09259       -2.18456
H          4.66417       -4.67177       -1.63630
H          3.02972       -4.15603       -1.27395
H          6.26646       -2.21042       -1.00781
H          6.58915       -3.86520       -0.48671
H          6.52882       -2.56713        0.69466
H          6.09106       -2.40352        3.02736
H          6.03118       -0.74124        3.61870
H          4.51883       -1.58635        3.20665
