105
-153.07205064
Cl        -0.73281        2.07672       -2.85508
Pd         0.10098        1.47604       -0.85336
P          1.36198        0.69227        0.93758
N          0.75603       -0.62294        1.93383
C          0.07726       -1.80622        1.67649
C         -0.11134       -2.34443        0.37926
C         -0.90981       -3.49564        0.21575
C         -1.09701       -4.05425       -1.17569
C         -1.71714       -5.45961       -1.22571
C         -2.86933       -5.58987       -0.22539
C         -2.37506       -5.32795        1.20502
C         -1.49369       -4.11070        1.32538
C         -1.24795       -3.59825        2.59220
C         -0.47909       -2.47700        2.76520
H         -0.32555       -2.07694        3.75237
H         -1.68817       -4.08522        3.44593
H         -3.22747       -5.21707        1.88758
H         -3.65311       -4.86520       -0.47913
H         -2.05686       -5.70038       -2.24295
H         -1.72278       -3.35600       -1.74375
C          0.68097       -1.87151       -0.78140
C          0.03331       -1.26544       -1.89205
C          0.77699       -1.04039       -3.05397
C          2.09460       -1.40965       -3.13328
C          2.72926       -2.04334       -2.07228
C          4.14545       -2.52152       -2.25374
C          4.46406       -3.74504       -1.38395
C          4.10908       -3.46201        0.07875
C          2.62771       -3.07525        0.24527
C          2.02468       -2.27712       -0.89025
H          2.02901       -3.98520        0.37261
H          4.74368       -2.64795        0.44637
H          5.51950       -4.03582       -1.48433
H          4.83093       -1.70308       -2.00869
H          2.64902       -1.22562       -4.03786
H          0.30077       -0.55447       -3.88735
N         -1.31186       -0.87345       -1.85958
P         -1.85711        0.17919       -0.55138
C         -2.76417       -0.68378        0.72764
C         -3.62059       -1.69009        0.35084
C         -4.38220       -2.33727        1.30747
C         -4.28830       -1.97681        2.64496
C         -3.43895       -0.93692        2.99936
C         -2.67993       -0.28936        2.04163
H         -2.01255        0.50947        2.31721
H         -3.37115       -0.64126        4.03235
C         -5.10711       -2.67003        3.67714
H         -5.05256       -3.12899        1.02002
H         -3.68638       -1.96518       -0.69007
C         -2.98717        1.43436       -1.16354
C         -3.00008        2.68402       -0.59027
C         -3.87399        3.64622       -1.06223
C         -4.73992        3.36183       -2.10950
C         -4.72579        2.08725       -2.65984
C         -3.84985        1.12628       -2.18774
H         -3.84070        0.13494       -2.61162
H         -5.40458        1.85203       -3.46172
C         -5.69490        4.39137       -2.60494
H         -3.88627        4.62760       -0.61969
H         -2.32389        2.90622        0.21964
H         -1.63829       -0.41705       -2.70171
H          0.97880       -0.40400        2.89731
C          1.30726        2.15300        1.98434
C          2.45845        2.74482        2.44694
C          2.38058        3.87640        3.23759
C          1.14883        4.42784        3.56369
C         -0.00291        3.81246        3.09255
C          0.07850        2.68029        2.30249
H         -0.81283        2.21211        1.91919
H         -0.96398        4.22695        3.34494
C          1.06410        5.63433        4.43247
H          3.27953        4.34163        3.60448
H          3.41525        2.32643        2.18223
C          3.08151        0.41801        0.50918
C          3.59390        0.83240       -0.69718
C          4.93727        0.65813       -0.97177
C          5.77888        0.07074       -0.03712
C          5.25009       -0.31524        1.18690
C          3.90328       -0.14684        1.45578
H          3.48833       -0.44686        2.40516
H          5.89860       -0.75176        1.92723
C          7.22856       -0.10638       -0.32623
H          5.34169        0.98442       -1.91471
H          2.94698        1.31126       -1.41306
Cl         1.56337        3.19015       -0.87369
H         -1.81846       -6.19950        1.56963
H         -0.94749       -6.20513       -0.98939
H         -3.34459       -6.57809       -0.30228
H         -0.12640       -4.05718       -1.68751
H          4.35616       -4.32710        0.70998
H          2.49181       -2.50982        1.17494
H          4.32163       -2.74677       -3.31328
H          3.88327       -4.60544       -1.73960
H         -4.57179       -2.73231        4.62570
H         -6.04274       -2.13720        3.85199
H         -5.35129       -3.68755        3.36860
H         -5.91038        4.25027       -3.66498
H         -6.63811        4.33964       -2.05939
H         -5.28887        5.39632       -2.48159
H          0.16851        6.21667        4.21145
H          1.03086        5.35196        5.48562
H          1.92639        6.28614        4.28533
H          7.79977        0.75869        0.01321
H          7.62432       -0.99029        0.17606
H          7.40489       -0.22788       -1.39595
