64
-97.21984996
Cl        -1.30232       -0.50417       -2.85701
Cl         1.91508       -0.86647       -2.89491
P          1.95350       -0.64336        0.33839
C          2.08110       -2.39566        0.93717
C          3.76829       -0.29071        0.12365
P         -1.24834       -0.28030        0.37568
C          1.20096        0.48172        1.56734
C         -0.24101        0.62773        1.61086
C         -0.56104        1.60490        2.64123
C          0.69520        2.09065        3.18627
C          1.78710        1.36418        2.56205
H         -1.56052        1.90632        2.95943
H          0.79795        2.82633        3.98706
Pd         0.32113       -0.72419       -1.33141
H          2.85229        1.48519        2.76585
C         -5.12459        1.79078       -0.85722
C         -4.82148        0.52601       -1.31999
C         -3.64092       -0.08393       -0.93473
C         -2.76634        0.57089       -0.09768
C         -3.07470        1.82705        0.37297
C         -4.25226        2.44230       -0.00858
H         -6.04271        2.26895       -1.15752
H         -5.50066        0.01458       -1.98215
H         -3.39163       -1.07083       -1.29133
H         -2.39121        2.32731        1.03512
H         -4.48769        3.42876        0.35607
C         -2.46293       -4.36214        1.95517
C         -2.10582       -4.21938        0.62841
C         -1.74018       -2.97684        0.14385
C         -1.72894       -1.89202        0.98996
C         -2.09421       -2.02461        2.30967
C         -2.46082       -3.26670        2.79679
H         -2.74795       -5.33021        2.33377
H         -2.11409       -5.07292       -0.02940
H         -1.47428       -2.84443       -0.89265
H         -2.08369       -1.15795        2.95187
H         -2.74324       -3.37800        3.83078
C          4.12483        0.59539       -1.05022
H          4.08387        0.18010        1.06415
C          4.37076       -1.70220        0.02394
H          5.43716       -1.68425        0.29626
C          3.58820       -2.71253        0.90039
H          4.33919       -2.02370       -1.02645
C          1.47517       -2.53224        2.31711
H          1.53678       -3.00627        0.20447
H          3.98054       -2.68239        1.92577
H          3.75553       -3.74336        0.55464
H          0.42388       -2.24297        2.32119
H          1.54492       -3.55828        2.68565
H          1.99103       -1.88537        3.02950
H          5.20745        0.67937       -1.16474
H          3.73057        0.18761       -1.98039
H          3.73005        1.60366       -0.93214
Fe         0.63630        2.37363        1.14295
C          1.92306        3.42405       -0.03126
C          0.95017        4.33002        0.55523
C         -0.36718        3.88224        0.13986
C         -0.20411        2.73742       -0.73696
C          1.21182        2.45938       -0.85134
H          3.00716        3.50486        0.07673
H          1.16872        5.18334        1.20111
H         -1.31280        4.36875        0.38872
H         -0.99681        2.19969       -1.26007
H          1.64641        1.68353       -1.48409
