58
-89.86693533
P          1.60076        0.03025        0.78971
C          2.96102        1.19771        0.72141
C          4.23990        0.72568        0.53165
C          5.29954        1.61327        0.47453
C          5.06872        2.96822        0.60794
C          3.78363        3.43690        0.79779
C          2.72606        2.54693        0.85537
H          1.71718        2.90185        0.99182
H          4.40237       -0.33495        0.42395
C          2.05048       -1.52786        0.01601
C          2.37258       -2.63387        0.76957
C          2.70501       -3.81959        0.13938
C          2.71805       -3.88795       -1.23997
C          2.40713       -2.77253       -1.99184
C          2.07636       -1.58951       -1.35828
H          1.84223       -0.70300       -1.92556
H          2.36534       -2.56926        1.84533
C          1.07726       -0.18639        2.54429
C          0.01550        0.82725        2.95764
C         -1.41381        0.38921        2.67038
P         -1.76844        0.00643        0.90000
C         -3.46012        0.46114        0.51596
C         -3.82747        1.78615        0.56415
C         -5.12861        2.14910        0.26413
C         -6.05111        1.18081       -0.08049
C         -5.67708       -0.14781       -0.12690
C         -4.37539       -0.50753        0.17247
H         -4.06701       -1.53990        0.13642
H         -3.09238        2.53151        0.82482
C         -1.43645       -1.70329        0.43944
C         -1.44702       -2.00505       -0.90374
C         -1.15650       -3.28831       -1.32815
C         -0.85786       -4.26466       -0.39940
C         -0.85468       -3.96079        0.94755
C         -1.14602       -2.67618        1.36807
H         -1.15537       -2.43867        2.41829
H         -1.66752       -1.22287       -1.61376
Pd        -0.12870        0.89661       -0.47425
Cl         1.36193        1.57315       -2.02112
Cl        -1.80302        1.41285       -1.89258
H         -1.67575       -0.49534        3.25265
H         -2.12295        1.16761        2.96317
H          0.11193        1.04896        4.03200
H          0.21704        1.78103        2.45134
H          0.71781       -1.20534        2.68840
H          1.98899       -0.08562        3.13892
H          6.30175        1.24724        0.32335
H          3.60303        4.49466        0.89673
H          2.95094       -4.68986        0.72541
H          2.42146       -2.82222       -3.06814
H         -5.41908        3.18635        0.29513
H         -6.39610       -0.90315       -0.39846
H         -1.15459       -3.52125       -2.38019
H         -0.62127       -4.72397        1.67173
H          5.89268        3.66147        0.56096
H          2.97394       -4.81295       -1.73043
H         -7.06424        1.46295       -0.31648
H         -0.62359       -5.26460       -0.72634
