105
-153.06554674
Cl        -0.57413        2.40277       -2.84814
Pd         0.20922        1.57319       -0.90926
P          1.32991        0.62703        0.94776
N          1.33686       -1.11444        1.17075
C          0.24961       -1.98816        1.32424
C         -0.11014       -2.81911        0.23467
C         -1.11834       -3.78388        0.38343
C         -1.46964       -4.66664       -0.78574
C         -2.87695       -5.27175       -0.67771
C         -3.07514       -5.92496        0.69478
C         -2.88886       -4.90482        1.83179
C         -1.76507       -3.92045        1.61413
C         -1.39330       -3.09905        2.67486
C         -0.40938       -2.15206        2.53914
H         -0.13908       -1.52616        3.36929
H         -1.90421       -3.20646        3.61674
H         -3.81788       -4.33933        1.97177
H         -4.06312       -6.40254        0.75740
H         -3.62353       -4.47923       -0.81398
H         -1.36685       -4.09990       -1.71928
C          0.55517       -2.55928       -1.06751
C         -0.09095       -1.68017       -1.97499
C          0.63097       -1.18808       -3.06320
C          1.92523       -1.58674       -3.28055
C          2.56230       -2.48393       -2.42830
C          3.99509       -2.85759       -2.72956
C          4.59998       -3.92082       -1.79491
C          4.08502       -3.76302       -0.36031
C          2.55548       -3.89025       -0.32963
C          1.87879       -2.96755       -1.30983
H          2.26271       -4.92118       -0.56108
H          4.37375       -2.77597        0.02281
H          5.69810       -3.88134       -1.81861
H          4.60317       -1.94677       -2.68530
H          2.46876       -1.19901       -4.12560
H          0.15296       -0.48342       -3.72058
N         -1.42503       -1.28335       -1.75586
P         -1.70657        0.19415       -0.84243
C         -2.39078       -0.11965        0.78013
C         -1.89364        0.56826        1.85811
C         -2.43711        0.37300        3.11345
C         -3.49198       -0.51094        3.29291
C         -4.00389       -1.17325        2.18452
C         -3.45296       -0.97905        0.93007
H         -3.85406       -1.48739        0.06782
H         -4.83532       -1.84541        2.31056
C         -4.08513       -0.71812        4.64244
H         -2.03883        0.90374        3.96108
H         -1.08564        1.26214        1.71190
C         -2.88604        1.23172       -1.70270
C         -3.33882        2.39417       -1.12639
C         -4.24046        3.18926       -1.81067
C         -4.68634        2.82639       -3.07516
C         -4.22384        1.64183       -3.63322
C         -3.32224        0.84818       -2.94694
H         -2.94610       -0.06700       -3.37535
H         -4.57017        1.34729       -4.60907
C         -5.67104        3.67232       -3.80472
H         -4.60165        4.10071       -1.36589
H         -2.98459        2.67476       -0.14700
H         -2.01713       -1.93719       -1.25872
H          1.85758       -1.28772        0.31829
C          1.05067        1.54516        2.45707
C          1.16429        0.90832        3.66884
C          0.91214        1.60584        4.83633
C          0.55967        2.94847        4.79356
C          0.46745        3.57738        3.55865
C          0.72141        2.87816        2.39349
H          0.68795        3.36705        1.43300
H          0.19739        4.61863        3.51536
C          0.25344        3.69065        6.04771
H          0.98524        1.10954        5.78892
H          1.45986       -0.12760        3.69357
C          3.03650        0.91383        0.44294
C          3.91021        1.56896        1.27749
C          5.21696        1.77875        0.87725
C          5.65766        1.32858       -0.35986
C          4.75784        0.67627       -1.19120
C          3.45276        0.46419       -0.78687
H          2.75452       -0.04541       -1.43062
H          5.08380        0.34532       -2.16218
C          7.05534        1.58126       -0.80674
H          5.90264        2.29987        1.52331
H          3.56637        1.91902        2.23706
Cl         1.78063        3.18319       -0.81127
H         -2.71931       -5.42545        2.78289
H         -3.05909       -5.99305       -1.48681
H         -2.34904       -6.73900        0.81391
H         -0.72539       -5.46928       -0.85049
H          4.55674       -4.49313        0.31232
H          2.17688       -3.69827        0.68184
H          4.05463       -3.19410       -3.77239
H          4.33623       -4.92076       -2.16194
H         -4.49818       -1.72309        4.74055
H         -3.33530       -0.59132        5.42471
H         -4.88859       -0.00368        4.82656
H         -6.69096        3.34408       -3.59995
H         -5.58790        4.71876       -3.50801
H         -5.51031        3.62115       -4.88248
H          0.47411        4.75361        5.94067
H         -0.80092        3.59038        6.30904
H          0.84479        3.31285        6.88297
H          7.73956        1.62012        0.04200
H          7.40302        0.79311       -1.47613
H          7.12502        2.53059       -1.33942
