105
-153.06752852
Cl        -1.09252        3.30795       -1.99365
Pd        -0.07331        1.74218       -0.74417
P          1.02658        0.49720        0.95835
N          0.05454       -0.81488        1.61574
C         -0.15049       -2.17776        1.36686
C          0.13103       -2.82433        0.13482
C         -0.30833       -4.14893       -0.07269
C         -0.20231       -4.76171       -1.44859
C         -1.25054       -5.85646       -1.69025
C         -1.17657       -6.90540       -0.57623
C         -1.42941       -6.27267        0.80414
C         -0.92612       -4.85575        0.96202
C         -1.14374       -4.21983        2.17759
C         -0.78438       -2.91127        2.36880
H         -0.99758       -2.42287        3.30400
H         -1.63260       -4.76312        2.96870
H         -2.50615       -6.27548        1.01286
H         -1.88363       -7.72500       -0.76656
H         -2.25052       -5.40500       -1.69974
H         -0.29082       -3.97497       -2.20810
C          0.67143       -2.05637       -1.01168
C         -0.21602       -1.18699       -1.69070
C          0.25014       -0.47620       -2.79609
C          1.53975       -0.63728       -3.23313
C          2.41087       -1.51991       -2.60290
C          3.79766       -1.69265       -3.16133
C          4.39439       -3.06560       -2.82242
C          4.32537       -3.31325       -1.31256
C          2.88123       -3.23169       -0.78247
C          1.98187       -2.23810       -1.48442
H          2.42430       -4.22317       -0.85027
H          4.94419       -2.56603       -0.80487
H          5.42722       -3.14876       -3.18962
H          4.43929       -0.89824       -2.76255
H          1.88951       -0.07834       -4.08437
H         -0.41740        0.20319       -3.29571
N         -1.53215       -1.04904       -1.23258
P         -2.08686        0.55483       -0.75539
C         -2.55108        0.62764        0.97284
C         -3.16776       -0.44637        1.57121
C         -3.37032       -0.44350        2.93965
C         -2.95400        0.63121        3.71359
C         -2.37281        1.72261        3.08415
C         -2.17135        1.72062        1.71699
H         -1.69983        2.56151        1.23356
H         -2.06219        2.56826        3.67389
C         -3.16232        0.63279        5.18777
H         -3.84076       -1.28595        3.41737
H         -3.46045       -1.29547        0.97460
C         -3.33737        1.23578       -1.83202
C         -4.11493        2.29076       -1.41959
C         -5.05952        2.82129       -2.27969
C         -5.23173        2.29439       -3.55316
C         -4.42849        1.23414       -3.95242
C         -3.48418        0.70510       -3.09057
H         -2.86053       -0.12231       -3.38945
H         -4.54416        0.82799       -4.94272
C         -6.22758        2.88559       -4.48928
H         -5.66588        3.65441       -1.96773
H         -3.97351        2.70019       -0.43198
H         -1.81301       -1.67448       -0.49026
H         -0.69602       -0.33362        2.09799
C          1.08468        1.71272        2.28539
C          1.32710        3.04228        2.03601
C          1.33906        3.95097        3.07636
C          1.12257        3.53200        4.38208
C          0.89009        2.18445        4.61941
C          0.87706        1.27881        3.57384
H          0.69614        0.23228        3.75822
H          0.71288        1.84947        5.62714
C          1.10115        4.51133        5.50360
H          1.51646        4.99441        2.87922
H          1.51314        3.36320        1.02572
C          2.72071       -0.07375        0.81214
C          3.13177       -0.98444        1.75752
C          4.45587       -1.38585        1.80409
C          5.37882       -0.87331        0.90283
C          4.94884        0.05430       -0.03620
C          3.62707        0.45381       -0.07578
H          3.30571        1.20737       -0.77255
H          5.66058        0.47406       -0.72640
C          6.80913       -1.28282        0.96627
H          4.77996       -2.09613        2.54529
H          2.41146       -1.37082        2.46180
Cl         1.90782        2.75527       -1.06000
H         -0.98035       -6.89097        1.59172
H         -1.12235       -6.31823       -2.67948
H         -0.18231       -7.36978       -0.58802
H          0.79670       -5.19013       -1.57841
H          4.77789       -4.28204       -1.05852
H          2.88334       -2.99983        0.28868
H          3.77593       -1.53929       -4.24778
H          3.82873       -3.84700       -3.34540
H         -2.37990        1.20014        5.69402
H         -4.12315        1.08163        5.44305
H         -3.14653       -0.38167        5.58871
H         -6.60738        2.13634       -5.18528
H         -7.08087        3.29691       -3.94820
H         -5.77909        3.69067       -5.07285
H          0.07909        4.81848        5.72952
H          1.53151        4.08064        6.40878
H          1.67473        5.40612        5.25803
H          7.36425       -0.64426        1.65467
H          6.90838       -2.31386        1.30880
H          7.28309       -1.21297       -0.01389
