115
-277.94116308
P         -1.59614       -0.66977       -0.04949
P          2.05255        0.36189        0.01137
C         -2.10858       -2.38449        0.12912
C         -1.17451       -3.35724        0.41154
H         -0.18421       -3.08176        0.73477
C         -1.48907       -4.68343        0.19997
H         -0.74202       -5.45443        0.30920
C         -2.72633       -5.03252       -0.31636
C         -3.69796       -4.05471       -0.47504
H         -4.65345       -4.32875       -0.89265
C         -3.39129       -2.72776       -0.24414
H         -4.11312       -1.95473       -0.45738
C         -2.96206        0.34267        0.56906
C         -3.64803        1.14225       -0.31654
H         -3.35201        1.17241       -1.35222
C         -4.71687        1.89665        0.12010
H         -5.26383        2.53101       -0.56060
C         -5.10922        1.85018        1.44426
C         -4.41774        1.04537        2.32698
H         -4.73376        1.01812        3.35798
C         -3.34863        0.29392        1.88774
H         -2.81408       -0.33881        2.57741
C         -1.31895       -0.27690       -1.81373
C         -0.78650        0.98957       -1.95419
H         -0.53757        1.55011       -1.07112
C         -0.41306        1.49100       -3.19997
C         -0.79865        0.77299       -4.32526
H         -0.55849        1.15553       -5.30317
C         -1.33382       -0.49299       -4.19602
H         -1.50717       -1.08410       -5.07935
C         -1.49223       -1.08861       -2.94442
C          1.85804       -0.26991       -1.68934
C          1.33009       -1.54902       -1.70134
H          1.02713       -1.99955       -0.77070
C          1.03262       -2.20006       -2.89857
C          1.48939       -1.62202       -4.07713
H          1.30702       -2.12153       -5.01394
C          2.01668       -0.34645       -4.07332
H          2.24291        0.13329       -5.01048
C          2.09999        0.39847       -2.89725
C         -1.49381       -2.60114       -2.90124
H         -2.10295       -2.98589       -3.72757
H         -2.02581       -2.94118       -2.01654
C         -0.05660       -3.23872       -2.94741
H          0.08090       -3.95321       -2.12916
H          0.06318       -3.84195       -3.85447
C          0.67929        2.52240       -3.29207
H          0.46725        3.33418       -2.58813
H          0.63914        3.00036       -4.27726
C          2.10492        1.90568       -3.03420
H          2.78886        2.18746       -3.84258
H          2.54926        2.34337       -2.14391
C          2.03704        2.15708        0.15656
C          0.86103        2.83420        0.39808
C          3.19251        2.84708       -0.14256
C          0.80823        4.19666        0.19513
C          3.13800        4.21152       -0.34653
C          1.93154        4.88218       -0.23950
C          3.58972       -0.26983        0.71539
C          4.09220       -1.45685        0.23498
C          4.26273        0.41545        1.70065
C          5.27329       -1.95891        0.73914
H          3.56805       -1.98405       -0.54490
C          5.44453       -0.08739        2.20642
H          3.85683        1.33829        2.08310
C          5.95526       -1.27841        1.72958
H          5.68849       -2.87961        0.36167
H          5.99204        0.43853        2.97268
Pd         0.26778       -0.34405        1.36743
Cl        -1.14210       -1.44811        2.74048
Cl         1.74501        0.09443        3.00067
H          4.00069        4.75523       -0.69884
H          4.11133        2.30778       -0.31313
H         -0.12729        4.72703        0.27346
H         -0.02395        2.30090        0.70290
C         -4.30863       -6.83903       -1.13729
C         -2.83267       -6.35931       -1.02662
C         -2.15856       -6.14862       -2.42052
F         -4.83912       -6.81119        0.09426
F         -4.99194       -6.01401       -1.94251
F         -4.32856       -8.09062       -1.62147
F         -2.14141       -7.29253       -0.36790
F         -2.28449       -7.25829       -3.16042
F         -2.72821       -5.09876       -3.02819
F         -0.86552       -5.87299       -2.20248
C         -5.92802        4.18262        1.79755
C         -6.27523        2.67212        1.93127
C         -7.55521        2.28202        1.13623
F         -4.81664        4.40399        2.51608
F         -5.70021        4.47328        0.50868
F         -6.94375        4.91719        2.27618
F         -6.50817        2.42182        3.22267
F         -7.38381        2.57956       -0.15942
F         -7.72981        0.95939        1.27831
F         -8.60870        2.94462        1.63774
C          7.22173       -3.30574        2.51965
C          7.28627       -1.77609        2.23309
C          8.37586       -1.41513        1.18299
F          6.16420       -3.52446        3.31541
F          7.06750       -3.97314        1.36765
F          8.35098       -3.68689        3.13634
F          7.60253       -1.16260        3.37683
F          8.40360       -0.07797        1.07810
F          9.56655       -1.87372        1.59680
F          8.04458       -1.95410        0.00045
C          1.26051        5.91647       -2.35593
C          1.79112        6.21991       -0.91987
C          0.86180        7.17485       -0.11710
F          1.17656        7.05445       -3.05816
F          2.12491        5.06903       -2.93192
F          0.06633        5.31780       -2.26610
F          2.98439        6.80789       -1.03660
F          0.85702        8.38008       -0.70780
F         -0.37893        6.66987       -0.07288
F          1.35714        7.27115        1.12597
