111
-148.55437177
P         -2.42156       -2.32879       -0.05257
P          0.00991       -0.35319       -0.50297
C         -1.69017       -2.16841       -1.70099
C         -0.66322       -1.27261       -1.90052
C         -2.60298       -4.10264        0.43521
C         -1.90674       -4.35735        1.75428
C         -2.16997       -2.91394       -2.75882
H         -2.95869       -3.62907       -2.59128
C         -1.63295       -2.74126       -4.02285
H         -2.00817       -3.32148       -4.85000
C         -0.62276       -1.82091       -4.22644
H         -0.20986       -1.68009       -5.21179
C         -0.13726       -1.08314       -3.16171
H          0.64907       -0.35828       -3.30475
Pd        -1.28530       -0.88624        1.35291
Cl        -2.85414       -1.30412        2.90296
Cl        -0.15522        0.62171        2.57439
C         -4.13227       -4.30331        0.48402
C         -4.19272       -1.78454        0.02046
H         -0.84266       -4.11507        1.69583
H         -2.34135       -3.73965        2.54246
H         -2.00028       -5.40143        2.06280
H         -4.38078       -5.03657        1.26502
H         -4.48224       -4.74692       -0.45963
H         -4.21497       -0.87862        0.64163
C         -4.88352       -2.96505        0.73247
C         -4.75050       -1.49373       -1.35712
H         -2.14688       -4.70211       -0.36442
H         -5.92848       -3.03742        0.39718
H         -4.93085       -2.77087        1.81413
H         -4.78288       -2.40249       -1.95976
H         -5.76897       -1.10191       -1.30297
H         -4.13470       -0.76731       -1.89187
C         -1.06382        4.06294       -0.71154
C          0.29914        3.67884       -0.79737
C          0.60629        2.33025       -0.73260
C         -0.38199        1.38467       -0.66015
C         -1.70450        1.74335       -0.68165
C         -2.08157        3.07517       -0.73715
O         -1.40552        5.43471       -0.57171
C          1.44000        4.70150       -0.91920
H          1.62934        1.99851       -0.72186
H         -2.44326        0.96158       -0.63277
C         -3.57747        3.42504       -0.77005
C          4.47073       -1.10328        0.14469
C          3.75677       -0.23543        1.00856
C          2.39882       -0.07412        0.79598
C          1.76583       -0.65683       -0.27024
C          2.47530       -1.41615       -1.16505
C          3.83450       -1.63059       -1.00763
O          5.80619       -1.47696        0.45173
C          4.41646        0.50753        2.18085
H          1.80081        0.49265        1.48676
H          1.94748       -1.85639       -1.99115
C          4.59414       -2.44527       -2.06694
C          2.66194        4.07809       -1.63209
C          1.00272        5.91691       -1.75664
C          1.87428        5.15210        0.48382
C         -4.38663        2.30498       -1.46198
C         -4.09328        3.57463        0.66971
C         -3.82920        4.71752       -1.56717
C         -1.48888        5.88081        0.77617
H          3.41950        4.83508       -1.83380
H          3.13472        3.30841       -1.02371
H          2.37119        3.63432       -2.58391
H          0.65886        5.60079       -2.74093
H          0.18994        6.45714       -1.27751
H          1.82758        6.61572       -1.89351
H          1.06111        5.64372        1.01106
H          2.18630        4.29780        1.08320
H          2.70909        5.85035        0.42898
H         -5.42133        2.61143       -1.61396
H         -3.96214        2.06269       -2.43594
H         -4.40889        1.39921       -0.85866
H         -3.94826        2.64975        1.22780
H         -3.56584        4.36382        1.19923
H         -5.15647        3.81303        0.68122
H         -3.35420        5.57439       -1.09652
H         -3.43081        4.62842       -2.57727
H         -4.89522        4.93130       -1.64046
H         -1.23139        5.07186        1.46113
H         -0.80722        6.71789        0.92602
H         -2.50030        6.22796        0.98609
C          5.90792       -2.62526        1.28464
C          3.71810        1.86551        2.42106
C          4.29194       -0.34281        3.45392
C          5.89598        0.81550        1.88754
C          6.04228       -1.94384       -2.21484
C          4.58645       -3.92949       -1.67136
C          3.92416       -2.30222       -3.45274
H          3.68789        2.44892        1.50169
H          2.69852        1.74000        2.78183
H          4.25260        2.44892        3.17031
H          4.74709        0.16083        4.30627
H          3.24464       -0.52834        3.69136
H          4.77925       -1.30754        3.33262
H          6.47937       -0.09561        1.78388
H          5.99332        1.38099        0.96136
H          6.34097        1.40167        2.69122
H          6.60747       -2.08845       -1.29734
H          6.56267       -2.47753       -3.00972
H          6.05787       -0.88082       -2.45305
H          5.07869       -4.08503       -0.71449
H          3.56519       -4.29952       -1.58356
H          5.10217       -4.53467       -2.41652
H          2.94790       -2.78409       -3.48060
H          4.53273       -2.76972       -4.22651
H          3.79752       -1.25236       -3.71593
H          4.91933       -3.04322        1.47866
H          6.53077       -3.37474        0.79641
H          6.37843       -2.35461        2.22957
