111
-148.55736474
P         -2.54709       -1.68748       -1.23399
P          0.25997       -0.47381       -0.43357
C         -1.30420       -1.37893       -2.51762
C         -0.06117       -0.90592       -2.15579
C         -3.54389       -3.20521       -1.59077
C         -3.09537       -4.37899       -0.74781
C         -1.59221       -1.61051       -3.84751
H         -2.57143       -1.96227       -4.12785
C         -0.62787       -1.37430       -4.81216
H         -0.85171       -1.55499       -5.85085
C          0.61927       -0.90524       -4.44628
H          1.36882       -0.71862       -5.19763
C          0.90166       -0.66523       -3.11375
H          1.86381       -0.28161       -2.81341
Pd        -1.40172       -1.56687        0.76554
Cl        -3.27093       -2.28386        1.77666
Cl        -0.16688       -1.31366        2.62261
C         -4.98462       -2.73129       -1.32493
C         -3.89258       -0.41798       -1.15231
H         -2.04440       -4.61775       -0.92734
H         -3.20351       -4.15810        0.31483
H         -3.68780       -5.27207       -0.95975
H         -5.23839       -2.94701       -0.27780
H         -5.69812       -3.31292       -1.92846
H         -3.97331       -0.13058       -0.09529
C         -5.14153       -1.20650       -1.59115
C         -3.57598        0.78540       -2.01354
H         -3.40760       -3.42469       -2.65723
H         -5.30612       -1.03842       -2.66434
H         -6.03851       -0.81144       -1.09051
H         -3.42747        0.48932       -3.05359
H         -4.38479        1.51933       -1.98831
H         -2.66201        1.28009       -1.68041
C         -1.29282        3.76098        0.17813
C         -0.73253        3.39378       -1.07271
C         -0.26835        2.09838       -1.22784
C         -0.26894        1.21883       -0.17762
C         -0.68708        1.61146        1.06574
C         -1.17917        2.88492        1.28760
O         -2.00836        4.98081        0.30759
C         -0.66082        4.35650       -2.26765
H          0.07888        1.75028       -2.18487
H         -0.64166        0.88985        1.86230
C         -1.63611        3.26929        2.70255
C          4.62452       -0.87625        0.79302
C          4.18892        0.26925        0.07885
C          2.84873        0.35985       -0.25863
C          1.97935       -0.66348        0.01585
C          2.41726       -1.81936        0.60611
C          3.74258       -1.97156        0.97968
O          5.92965       -0.91074        1.35239
C          5.13305        1.41992       -0.30383
H          2.45842        1.24520       -0.73072
H          1.69781       -2.59751        0.79411
C          4.18979       -3.29433        1.62126
C         -1.92132        4.19089       -3.13021
C         -0.52543        5.81683       -1.79971
C          0.57908        4.04715       -3.13761
C         -1.44985        4.77579        2.95711
C         -3.11152        2.87848        2.87913
C         -0.79840        2.52393        3.76681
C         -3.39262        4.87056       -0.00006
H         -2.00007        3.17109       -3.50623
H         -2.82140        4.40287       -2.55773
H         -1.89973        4.86462       -3.98637
H         -1.40293        6.13912       -1.24497
H          0.34132        5.93244       -1.14981
H         -0.40617        6.49077       -2.64769
H          1.48419        4.03542       -2.53088
H          0.49113        3.08510       -3.64010
H          0.70563        4.80226       -3.91310
H         -1.71554        5.03597        3.98140
H         -0.41346        5.06758        2.79066
H         -2.07397        5.37022        2.29454
H         -3.46361        3.12428        3.88057
H         -3.74491        3.39691        2.16319
H         -3.24689        1.80780        2.72678
H         -1.00152        1.45410        3.76423
H          0.26733        2.67098        3.59394
H         -1.02930        2.88987        4.76691
H         -3.63642        5.52728       -0.83492
H         -3.64370        3.84190       -0.26202
H         -3.98404        5.18023        0.86148
C          6.00941       -0.37975        2.66936
C          6.55985        0.90429       -0.56524
C          4.65710        2.10459       -1.60585
C          5.14396        2.46483        0.82220
C          3.99866       -3.20742        3.14319
C          3.34615       -4.47395        1.08660
C          5.65934       -3.60724        1.28580
H          6.55374        0.13218       -1.33387
H          7.21293        1.71024       -0.89901
H          6.99847        0.47665        0.33277
H          3.71977        2.63975       -1.46139
H          5.39066        2.83331       -1.95006
H          4.51551        1.37178       -2.39985
H          5.79702        3.30076        0.57288
H          4.14186        2.85804        0.99216
H          5.49257        2.03357        1.75745
H          2.95481       -3.01326        3.38890
H          4.29295       -4.13786        3.62796
H          4.59298       -2.40325        3.57003
H          3.74330       -5.42502        1.44065
H          2.31216       -4.41537        1.42313
H          3.35321       -4.49319       -0.00290
H          5.95519       -4.57618        1.68719
H          6.32997       -2.86050        1.70327
H          5.81083       -3.62623        0.20708
H          6.70705        0.45740        2.68507
H          5.02749       -0.04196        3.00321
H          6.38158       -1.14492        3.35040
