171
-217.84547200
P         -1.58892        0.37848       -0.44839
P          1.61891       -0.37089       -0.27785
C         -0.80863        1.38601       -1.71760
C          1.02327       -1.28516       -1.70352
C          0.05580        0.81960       -2.64760
C          0.72415        1.66431       -3.55492
C          0.47477        3.02602       -3.52307
C         -0.40814        3.56522       -2.61216
C         -1.04165        2.73995       -1.70417
C          1.27837       -2.63322       -1.76485
C          0.78175       -3.38681       -2.81041
C          0.00896       -2.78357       -3.78001
C         -0.26077       -1.42590       -3.73585
C          0.27485       -0.65163       -2.68867
Cl         1.31670        0.23571        3.01253
Cl        -1.80911       -0.41508        2.67199
C         -1.09739       -0.81029       -4.80257
C          1.68411        1.12138       -4.55532
H         -0.59985        4.62575       -2.60500
H         -1.72430        3.15598       -0.98147
H          1.86884       -3.09825       -0.99191
H          0.99207       -4.44249       -2.86385
H          0.98301        3.66646       -4.22415
H         -0.39493       -3.36983       -4.58816
C         -3.65548       -3.38443       -1.86818
C         -2.72883       -3.47595       -0.83657
C         -2.07707       -2.31296       -0.45005
C         -2.36249       -1.11630       -1.05918
C         -3.28687       -1.03999       -2.07141
C         -3.95442       -2.18222       -2.49836
H         -4.17431       -4.26899       -2.18581
H         -1.34701       -2.33604        0.34019
H         -3.48891       -0.07922       -2.51363
C         -4.56960        2.77774        1.98496
C         -3.22164        3.10881        2.06080
C         -2.33282        2.38280        1.27951
C         -2.77635        1.35404        0.48660
C         -4.10819        1.02699        0.44029
C         -5.03690        1.74137        1.18574
H         -5.28004        3.33216        2.56854
H         -1.28032        2.60835        1.29879
H         -4.41528        0.19952       -0.17376
C          4.27344       -2.89469        2.40139
C          2.92341       -3.21516        2.30528
C          2.13289       -2.45508        1.45379
C          2.67147       -1.40802        0.74853
C          4.00362       -1.10016        0.86221
C          4.83627       -1.84237        1.68770
H          4.89875       -3.47084        3.05567
H          1.08041       -2.66433        1.36143
H          4.39563       -0.26009        0.31590
C          3.90244        3.43161       -1.14512
C          2.86508        3.46544       -0.22073
C          2.15729        2.29237        0.00026
C          2.47864        1.14506       -0.68055
C          3.50598        1.12536       -1.59102
C          4.24422        2.27678       -1.83947
H          4.47816        4.32090       -1.31945
H          1.36366        2.26626        0.72735
H          3.73583        0.19853       -2.08862
Pd        -0.07842       -0.05538        1.27861
C         -2.35716       -4.60171        1.38713
C         -2.39427       -4.80388       -0.14160
C         -1.02018       -5.28659       -0.63153
C         -3.44406       -5.88774       -0.45525
H         -2.17952       -5.54650        1.90057
H         -1.56518       -3.91595        1.68359
H         -3.30314       -4.19585        1.74471
H         -0.73202       -6.21644       -0.14155
H         -1.03585       -5.46113       -1.70703
H         -0.25309       -4.54158       -0.42561
H         -3.44698       -6.14141       -1.51493
H         -3.23156       -6.80294        0.09728
H         -4.44354       -5.55436       -0.17627
C         -5.16027       -0.73755       -4.21211
C         -5.03864       -2.14009       -3.58474
C         -6.39322       -2.51169       -2.95406
C         -4.69591       -3.14581       -4.70020
H         -5.45191        0.00237       -3.46700
H         -4.21767       -0.42390       -4.65945
H         -5.91733       -0.72904       -4.99614
H         -7.19160       -2.47829       -3.69517
H         -6.36966       -3.51601       -2.53243
H         -6.64762       -1.81922       -2.15213
H         -3.72200       -2.92595       -5.13531
H         -4.66916       -4.16676       -4.32174
H         -5.43702       -3.10859       -5.49847
C         -1.40358        3.83221        3.65081
C         -2.70368        4.25824        2.93709
C         -3.73180        4.65100        4.01621
C         -2.42624        5.47698        2.04151
H         -1.55742        2.91233        4.21457
H         -0.59370        3.66103        2.94379
H         -1.07015        4.60269        4.34567
H         -4.00665        3.78833        4.62294
H         -3.32269        5.41091        4.68192
H         -4.63690        5.06336        3.57149
H         -1.70472        5.23146        1.26366
H         -3.34039        5.81177        1.55160
H         -2.02829        6.30855        2.62280
C         -7.33654        2.63760        0.72846
C         -6.53322        1.39867        1.16527
C         -6.97009        0.96447        2.57597
C         -6.83891        0.25038        0.18255
H         -8.40226        2.41429        0.68112
H         -7.20119        3.46476        1.42417
H         -7.01805        2.97400       -0.25807
H         -6.81775        1.76379        3.30031
H         -8.02593        0.69483        2.59245
H         -6.39470        0.09999        2.90672
H         -6.54291        0.51513       -0.83240
H         -6.31592       -0.66198        0.46884
H         -7.90553        0.02678        0.16783
C          1.17652       -3.71448        4.02771
C          2.26945       -4.33065        3.13290
C          3.29170       -5.05019        4.03301
C          1.63848       -5.36575        2.18482
H          0.40011       -3.23461        3.43317
H          0.70070       -4.47607        4.64501
H          1.60147       -2.95894        4.68803
H          4.08010       -5.51259        3.43939
H          3.74959       -4.35692        4.73830
H          2.80963       -5.83800        4.61178
H          0.86433       -4.91156        1.56954
H          2.39042       -5.78930        1.51932
H          1.18207       -6.18210        2.74433
C          7.08791       -2.39175        2.74250
C          6.31662       -1.45083        1.79763
C          6.41777       -0.01428        2.34444
C          6.96541       -1.51884        0.40217
H          7.04674       -3.42197        2.38927
H          8.13775       -2.10474        2.80142
H          6.67964       -2.35488        3.75228
H          5.93784        0.06018        3.32002
H          7.45859        0.28943        2.45479
H          5.93154        0.69819        1.67880
H          8.02317       -1.26078        0.45049
H          6.88089       -2.52285       -0.01315
H          6.48660       -0.82894       -0.29168
C          1.05353        5.13112        0.23663
C          2.49676        4.72319        0.57799
C          3.43069        5.90344        0.25005
C          2.60578        4.41742        2.08427
H          0.35627        4.32481        0.45841
H          0.74908        6.00793        0.80778
H          0.96293        5.36949       -0.82250
H          3.15740        6.78486        0.83007
H          4.46664        5.66081        0.48616
H          3.36908        6.17129       -0.80458
H          2.36337        5.29730        2.67987
H          1.92541        3.61954        2.37875
H          3.61732        4.10331        2.34056
C          5.60976        0.93852       -3.52067
C          5.45330        2.28436       -2.78563
C          6.72855        2.54015       -1.96144
C          5.28374        3.39742       -3.83689
H          5.78588        0.12455       -2.81779
H          4.72082        0.70347       -4.10484
H          6.45701        0.96848       -4.20564
H          6.68373        3.50365       -1.45484
H          6.85683        1.76941       -1.20153
H          7.61280        2.53734       -2.59851
H          4.36446        3.25794       -4.40430
H          5.24297        4.38167       -3.37229
H          6.11639        3.39825       -4.54014
H         -1.49827        0.15428       -4.48816
H          2.55693        1.76839       -4.64596
H         -1.94270       -1.45200       -5.05166
H         -0.51674       -0.65545       -5.71288
H          1.22063        1.04729       -5.53996
H          2.03773        0.12918       -4.27185
