58
-89.86803635
P          1.63173        0.28860        0.88074
C          3.04452        1.36578        0.62263
C          4.16830        0.88459       -0.00955
C          5.24935        1.72044       -0.22324
C          5.19512        3.03488        0.19657
C          4.06395        3.51480        0.82680
C          2.98419        2.67601        1.03899
H          2.08910        3.04174        1.51675
H          4.19361       -0.14164       -0.33828
C          1.98211       -1.37432        0.29139
C          2.28270       -2.39514        1.16422
C          2.52695       -3.66624        0.67675
C          2.47960       -3.90464       -0.68245
C          2.19735       -2.87400       -1.55650
C          1.95053       -1.60496       -1.06569
H          1.73446       -0.78723       -1.73516
H          2.34156       -2.19645        2.22169
C          1.18974        0.32729        2.66285
C          0.05502       -0.60777        3.04694
C         -1.32072       -0.12817        2.61628
P         -1.65177       -0.24487        0.81201
C         -3.31404        0.37155        0.53083
C         -4.29553       -0.47574        0.06993
C         -5.57184        0.00811       -0.15383
C         -5.85412        1.33874        0.08488
C         -4.86509        2.18548        0.54552
C         -3.58942        1.69844        0.76901
H         -2.80351        2.34967        1.11823
H         -4.05777       -1.51024       -0.11819
C         -1.47191       -1.91529        0.16887
C         -1.37367       -3.00974        0.99759
C         -1.21448       -4.27078        0.45208
C         -1.16492       -4.42928       -0.91894
C         -1.28220       -3.33138       -1.74747
C         -1.43817       -2.07254       -1.19818
H         -1.53843       -1.20173       -1.82660
H         -1.43702       -2.88215        2.06544
Pd        -0.11770        0.91050       -0.49848
Cl         1.25890        2.23933       -1.66553
Cl        -1.84097        1.19840       -1.91918
H         -2.11228       -0.70700        3.09868
H         -1.47319        0.91286        2.90679
H          0.24381       -1.60265        2.62684
H          0.05998       -0.75047        4.13892
H          2.10877        0.07894        3.19958
H          0.94412        1.35869        2.92142
H          6.12953        1.34686       -0.72023
H          4.01898        4.54238        1.14832
H          2.75504       -4.46950        1.35804
H          2.16391       -3.05729       -2.61780
H         -6.34239       -0.65176       -0.51726
H         -5.08397        3.22503        0.72630
H         -1.12917       -5.12934        1.09774
H         -1.24876       -3.45282       -2.81764
H          6.03536        3.68858        0.02819
H          2.66647       -4.89596       -1.06183
H         -6.84740        1.71798       -0.09199
H         -1.03739       -5.41193       -1.34298
