58
-89.86902163
P          1.61254        0.30895        0.90352
C          3.00435        1.41068        0.64069
C          4.20945        0.90686        0.20769
C          5.27554        1.76203       -0.00513
C          5.12455        3.11680        0.21622
C          3.91233        3.61780        0.64854
C          2.84781        2.75977        0.86110
H          1.89174        3.13721        1.18844
H          4.30922       -0.15210        0.03224
C          1.98206       -1.34623        0.30280
C          2.22828       -2.39369        1.16091
C          2.48027       -3.65412        0.65012
C          2.49414       -3.85570       -0.71602
C          2.26652       -2.79859       -1.57414
C          2.01307       -1.54095       -1.05962
H          1.84111       -0.69946       -1.71220
H          2.23943       -2.22470        2.22491
C          1.18986        0.34758        2.69060
C          0.03721       -0.55972        3.08608
C         -1.32882       -0.05897        2.64877
P         -1.65943       -0.20484        0.84745
C         -3.31635        0.41357        0.54269
C         -4.29152       -0.43265        0.06667
C         -5.56373        0.05243       -0.17694
C         -5.84824        1.38341        0.05701
C         -4.86549        2.22916        0.53269
C         -3.59393        1.74084        0.77610
H         -2.81291        2.39133        1.13744
H         -4.05193       -1.46740       -0.11767
C         -1.47819       -1.88476        0.22933
C         -1.41566       -2.06049       -1.13466
C         -1.24912       -3.32697       -1.66293
C         -1.15190       -4.41368       -0.81717
C         -1.23256       -4.23668        0.55008
C         -1.40126       -2.96806        1.07469
H         -1.48825       -2.82571        2.13905
H         -1.50132       -1.19842       -1.77747
Pd        -0.13186        0.90044       -0.50474
Cl         1.41944        1.72381       -1.90675
Cl        -1.83246        1.27071       -1.92627
H         -2.13172       -0.61295        3.14150
H         -1.45963        0.99012        2.92010
H          0.20608       -1.56315        2.67829
H          0.03978       -0.68899        4.17973
H          2.10842        0.07610        3.21678
H          0.97269        1.38450        2.95317
H          6.21996        1.37144       -0.34682
H          3.79302        4.67566        0.81567
H          2.66536       -4.47853        1.31900
H          2.28184       -2.95211       -2.64057
H         -6.32922       -0.60669       -0.55223
H         -5.08606        3.26899        0.70970
H         -1.19122       -3.46293       -2.73028
H         -1.16344       -5.08653        1.20908
H          5.95336        3.78493        0.04773
H          2.68644       -4.83906       -1.11307
H         -6.83821        1.76372       -0.13547
H         -1.01588       -5.40208       -1.22483
