171
-217.84391931
P         -1.59515        0.34079       -0.48920
P          1.60389       -0.36773       -0.20984
C         -0.79673        1.32453       -1.76052
C          1.04070       -1.33577       -1.61372
C          0.08335        0.72945       -2.65718
C          0.75875        1.54644       -3.58478
C          0.50317        2.90752       -3.60076
C         -0.39411        3.47341       -2.72017
C         -1.03800        2.67620       -1.79460
C          1.29621       -2.68561       -1.61603
C          0.81640       -3.48283       -2.63597
C          0.06333       -2.91915       -3.64376
C         -0.20598       -1.56042       -3.65991
C          0.31072       -0.74219       -2.63729
Cl         1.26142        0.13484        3.04243
Cl        -1.82981       -0.41097        2.75863
C         -1.02146       -0.98815       -4.76532
C          1.73746        0.97789       -4.55201
H         -0.58940        4.53287       -2.75086
H         -1.73520        3.11100       -1.09708
H          1.87555       -3.11962       -0.81764
H          1.02494       -4.54023       -2.63930
H          1.01901        3.52664       -4.31531
H         -0.32570       -3.53825       -4.43450
C         -3.75663       -3.32401       -2.02021
C         -2.75521       -3.48107       -1.07011
C         -2.09839       -2.34146       -0.62376
C         -2.42056       -1.10968       -1.13608
C         -3.40054       -0.97224       -2.08840
C         -4.10499       -2.08215       -2.53899
H         -4.28576       -4.19806       -2.34981
H         -1.33264       -2.40329        0.12995
H         -3.62798        0.01057       -2.46683
C         -4.47784        2.75110        2.06265
C         -3.13420        3.10633        2.04820
C         -2.28132        2.38379        1.22421
C         -2.75200        1.33599        0.47216
C         -4.07926        0.98872        0.51418
C         -4.97170        1.68850        1.31498
H         -5.15500        3.31220        2.67688
H         -1.23337        2.62533        1.18026
H         -4.42049        0.15557       -0.07433
C          4.36141       -2.75303        2.49682
C          3.03240       -3.14717        2.38556
C          2.20924       -2.42876        1.52833
C          2.69448       -1.34834        0.83501
C          4.00517       -0.96487        0.96917
C          4.86974       -1.66283        1.80005
H          5.01381       -3.30311        3.14701
H          1.17359       -2.70113        1.41487
H          4.35719       -0.10316        0.42972
C          3.86650        3.41974       -1.19116
C          2.82101        3.48092       -0.27756
C          2.11405        2.31368       -0.02244
C          2.44397        1.14608       -0.66354
C          3.47984        1.09986       -1.56404
C          4.21873        2.24390       -1.84292
H          4.44149        4.30441       -1.38971
H          1.31630        2.30705        0.70069
H          3.71908        0.15703       -2.02608
Pd        -0.14923       -0.07498        1.30032
C         -1.22529       -4.83986        0.43765
C         -2.43656       -4.87534       -0.51378
C         -2.11137       -5.83248       -1.67591
C         -3.65723       -5.39736        0.26444
H         -0.98876       -5.83995        0.80055
H         -0.34382       -4.45322       -0.07243
H         -1.42529       -4.21390        1.30695
H         -1.83861       -6.81958       -1.30300
H         -2.96380       -5.95436       -2.34281
H         -1.27775       -5.45253       -2.26522
H         -3.45962       -6.38288        0.68574
H         -3.90750       -4.72322        1.08345
H         -4.53118       -5.47775       -0.38116
C         -6.27023       -0.89433       -2.97689
C         -5.25200       -1.90048       -3.54526
C         -5.98586       -3.22748       -3.82010
C         -4.69169       -1.36813       -4.87519
H         -7.12175       -0.77913       -3.64730
H         -6.64481       -1.23040       -2.01015
H         -5.82014        0.08824       -2.84265
H         -6.80917       -3.07626       -4.51819
H         -5.31439       -3.96461       -4.25997
H         -6.40295       -3.64169       -2.90229
H         -4.16512       -0.42517       -4.73230
H         -3.99618       -2.08345       -5.31241
H         -5.49233       -1.19807       -5.59486
C         -1.23838        3.87994        3.51836
C         -2.58625        4.27495        2.88017
C         -3.55319        4.66084        4.01718
C         -2.38836        5.48919        1.95794
H         -0.47202        3.70939        2.76490
H         -0.87466        4.66612        4.17963
H         -1.34248        2.96674        4.10399
H         -3.77705        3.79909        4.64580
H         -3.11619        5.43215        4.65131
H         -4.48999        5.05620        3.62587
H         -1.71913        5.24680        1.13395
H         -3.33873        5.80667        1.52922
H         -1.96383        6.33155        2.50380
C         -7.08221        1.61957       -0.02529
C         -6.45151        1.27882        1.33548
C         -7.23191        2.01526        2.44168
C         -6.56413       -0.23677        1.59533
H         -8.13204        1.32844       -0.05492
H         -7.02118        2.68987       -0.22154
H         -6.56647        1.10360       -0.83338
H         -8.26744        1.67674        2.47488
H         -6.79029        1.82934        3.42059
H         -7.24603        3.09067        2.26624
H         -6.10680       -0.81634        0.79462
H         -6.06780       -0.50418        2.52795
H         -7.60752       -0.54309        1.66786
C          1.16525       -3.89680        3.88992
C          2.45222       -4.33688        3.16317
C          3.44260       -4.86681        4.21809
C          2.12994       -5.46989        2.17405
H          0.39112       -3.59249        3.18723
H          0.76072       -4.70904        4.49340
H          1.36623       -3.05276        4.54928
H          2.99744       -5.67934        4.79222
H          4.34730       -5.25488        3.75077
H          3.72396       -4.08074        4.91866
H          1.42393       -5.13643        1.41541
H          3.03275       -5.80387        1.66301
H          1.69402       -6.32662        2.68760
C          6.99712       -1.26795        0.53552
C          6.32689       -1.19480        1.92019
C          7.12942       -2.07035        2.90115
C          6.35054        0.25916        2.42935
H          8.03766       -0.94807        0.58760
H          6.97527       -2.28725        0.15050
H          6.48757       -0.62863       -0.18428
H          6.69651       -2.03675        3.90076
H          7.15591       -3.10817        2.56951
H          8.15953       -1.72211        2.97607
H          5.84449        0.93091        1.73680
H          5.85023        0.33640        3.39441
H          7.37387        0.61438        2.54901
C          2.57257        4.51121        1.99296
C          2.44963        4.76379        0.47817
C          1.00222        5.15044        0.13073
C          3.37260        5.93877        0.10292
H          1.91294        3.70771        2.31716
H          3.59217        4.22825        2.25367
H          2.31360        5.40482        2.56051
H          0.90582        5.35695       -0.93458
H          0.31250        4.34533        0.37755
H          0.69305        6.04124        0.67715
H          3.09338        6.83897        0.65037
H          4.41134        5.71439        0.34474
H          3.30554        6.16610       -0.96087
C          5.27684        3.29133       -3.87030
C          5.44127        2.22419       -2.77168
C          5.62220        0.85031       -3.44668
C          6.70232        2.52784       -1.94148
H          6.12102        3.27320       -4.55942
H          4.36885        3.11894       -4.44655
H          5.21760        4.29303       -3.44677
H          4.74613        0.58207       -4.03580
H          6.48115        0.85954       -4.11752
H          5.79276        0.06828       -2.70717
H          6.64204        3.51207       -1.47822
H          6.82676        1.79255       -1.14678
H          7.59564        2.50571       -2.56539
H         -1.77675       -1.70035       -5.09810
H          2.62795        1.60353       -4.61312
H         -0.39702       -0.74115       -5.62461
H         -1.53740       -0.08080       -4.44796
H          1.30637        0.91529       -5.55202
H          2.05733       -0.02235       -4.25699
