111
-148.55731018
P         -2.67200       -1.93589       -0.40738
P          0.12503       -0.47438       -0.48973
C         -1.84624       -1.67049       -1.99987
C         -0.60073       -1.08103       -2.02452
C         -3.57762       -3.54890       -0.36132
C         -2.82314       -4.58770        0.43942
C         -2.45335       -2.04549       -3.18136
H         -3.43539       -2.48861       -3.15905
C         -1.80430       -1.83481       -4.38586
H         -2.27753       -2.12707       -5.30906
C         -0.55327       -1.24828       -4.40702
H         -0.04977       -1.08172       -5.34506
C          0.04875       -0.86537       -3.22198
H          1.01672       -0.38942       -3.22119
Pd        -1.07151       -1.51160        1.19993
Cl        -2.52914       -2.24840        2.73850
Cl         0.56573       -1.03764        2.66161
C         -4.94629       -3.15162        0.22186
C         -4.06508       -0.76336       -0.07289
H         -3.36051       -5.53850        0.46670
H         -1.83139       -4.76968        0.01852
H         -2.68532       -4.25876        1.47022
H         -4.91347       -3.27665        1.31303
H         -5.72916       -3.83990       -0.13162
H         -3.90548       -0.38681        0.94648
C         -5.30508       -1.67650       -0.11850
C         -4.08444        0.37575       -1.06902
H         -3.68873       -3.87384       -1.40357
H         -5.74153       -1.62961       -1.12568
H         -6.08514       -1.29636        0.55850
H         -4.17468       -0.00268       -2.08887
H         -4.92434        1.05069       -0.88867
H         -3.16460        0.96126       -1.01709
C         -1.35467        3.77466        0.20089
C         -0.83737        3.02029        1.28486
C         -0.39703        1.73331        1.03309
C         -0.39811        1.21932       -0.23587
C         -0.78876        1.98374       -1.30325
C         -1.23490        3.28225       -1.12435
O         -2.03143        4.99876        0.44655
C         -0.79368        3.55216        2.72504
H         -0.06300        1.09547        1.83279
H         -0.75874        1.54302       -2.28415
C         -1.61416        4.11575       -2.35798
C          4.66731       -0.67485       -0.32494
C          4.02647        0.44433       -0.91554
C          2.64191        0.47088       -0.93497
C          1.90775       -0.58741       -0.46702
C          2.52210       -1.71744        0.00374
C          3.90349       -1.80729        0.05822
O          6.06676       -0.64662       -0.08366
C          4.80218        1.63727       -1.49586
H          2.11225        1.33309       -1.30260
H          1.90177       -2.52507        0.35246
C          4.54693       -3.10378        0.57437
C         -0.59696        5.07860        2.74895
C         -2.09786        3.17286        3.44301
C          0.39332        2.93205        3.49752
C         -3.08901        3.86538       -2.70786
C         -1.37455        5.61612       -2.11039
C         -0.74358        3.71569       -3.57122
C         -3.43126        4.85135        0.65020
H         -0.50223        5.44563        3.77061
H          0.30365        5.35777        2.20310
H         -1.43738        5.59424        2.29112
H         -2.09319        3.52583        4.47388
H         -2.96230        3.60397        2.94352
H         -2.22873        2.09095        3.45702
H          1.32550        3.06828        2.94993
H          0.50682        3.40136        4.47440
H          0.25038        1.86649        3.67045
H         -3.25892        2.81253       -2.93167
H         -3.74199        4.13787       -1.88201
H         -3.38749        4.44705       -3.57962
H         -1.58040        6.19927       -3.00763
H         -2.01540        5.99502       -1.31824
H         -0.34052        5.79630       -1.81832
H         -0.97080        2.70841       -3.91714
H         -0.91756        4.38842       -4.41072
H          0.31577        3.76121       -3.31958
H         -3.97295        5.42909       -0.09855
H         -3.71824        3.80151        0.57686
H         -3.69972        5.23291        1.63518
C          6.42562       -0.10597        1.18193
C          4.00834        2.29481       -2.64828
C          5.02165        2.68494       -0.39383
C          6.15351        1.18952       -2.08172
C          3.65509       -4.32372        0.24947
C          5.90951       -3.35441       -0.09682
C          4.71359       -3.01312        2.09897
H          3.10525        2.78562       -2.28835
H          4.60842        3.05638       -3.14582
H          3.72259        1.55376       -3.39440
H          5.59496        2.27360        0.43337
H          5.56018        3.55030       -0.77928
H          4.06777        3.03045        0.00426
H          6.80588        0.78507       -1.31199
H          6.00745        0.41640       -2.83533
H          6.67422        2.02495       -2.54906
H          3.40755       -4.35150       -0.81137
H          4.16620       -5.25349        0.49828
H          2.72715       -4.30796        0.81913
H          6.33450       -4.30570        0.22238
H          5.80466       -3.37636       -1.18102
H          6.62491       -2.57500        0.15293
H          5.15157       -3.92700        2.49939
H          3.74906       -2.85995        2.58259
H          5.35731       -2.18219        2.37677
H          5.53333        0.18344        1.73856
H          6.98482       -0.84813        1.75140
H          7.06473        0.76534        1.04018
