111
-148.55577336
P         -2.34213       -2.18595       -0.61416
P          0.07089       -0.14786       -0.50401
C         -1.49434       -1.72042       -2.14464
C         -0.43658       -0.84052       -2.08796
C         -2.74017       -3.99213       -0.58855
C         -1.82029       -4.74009        0.35193
C         -1.90184       -2.23151       -3.36017
H         -2.74004       -2.90787       -3.39985
C         -1.23849       -1.86348       -4.51810
H         -1.55486       -2.26208       -5.46818
C         -0.17355       -0.98492       -4.45780
H          0.34270       -0.69840       -5.35921
C          0.22721       -0.46904       -3.23816
H          1.05332        0.22167       -3.17328
Pd        -1.08212       -1.34475        1.12088
Cl        -2.53402       -2.28342        2.54580
Cl         0.27212       -0.40107        2.63995
C         -4.22607       -4.00738       -0.18342
C         -4.04230       -1.46887       -0.48072
H         -0.77425       -4.62957        0.05555
H         -1.91376       -4.35821        1.36987
H         -2.05583       -5.80664        0.37695
H         -4.29177       -4.11157        0.90844
H         -4.72753       -4.89607       -0.59606
H         -4.11699       -1.05100        0.53210
C         -4.95277       -2.70352       -0.62177
C         -4.26807       -0.39648       -1.52538
H         -2.61972       -4.35458       -1.61740
H         -5.26519       -2.79444       -1.67116
H         -5.88191       -2.56079       -0.04936
H         -5.26913        0.03399       -1.44674
H         -3.54013        0.41246       -1.42887
H         -4.16349       -0.80799       -2.53087
C         -1.40206        4.16108       -0.32440
C         -2.09536        3.13932        0.37221
C         -1.61848        1.84336        0.27714
C         -0.45532        1.56101       -0.39106
C          0.27413        2.56091       -0.98039
C         -0.15335        3.87864       -0.93508
O         -1.97766        5.45443       -0.44068
C         -3.35261        3.41144        1.21376
H         -2.16377        1.03190        0.72532
H          1.18051        2.29331       -1.49505
C          0.71247        4.97194       -1.58153
C          4.42041       -1.04909        0.48537
C          3.88816        0.22438        0.81286
C          2.56483        0.48451        0.49605
C          1.80801       -0.43348       -0.18306
C          2.34739       -1.62615       -0.59012
C          3.66513       -1.94834       -0.30980
O          5.68818       -1.44286        0.99019
C          4.70258        1.29797        1.55110
H          2.09399        1.40033        0.80772
H          1.71136       -2.31655       -1.11800
C          4.23468       -3.27745       -0.82940
C         -3.29725        4.81226        1.84973
C         -4.60193        3.27999        0.33010
C         -3.46160        2.39375        2.37324
C          2.21016        4.60405       -1.49781
C          0.32350        5.11698       -3.06049
C          0.54643        6.31896       -0.85404
C         -2.82903        5.61062       -1.56908
H         -3.29730        5.59202        1.09212
H         -4.15608        4.98266        2.49843
H         -2.39304        4.92664        2.44664
H         -4.67084        2.27868       -0.09320
H         -5.50823        3.46451        0.90632
H         -4.57884        3.98756       -0.49499
H         -4.26956        2.66525        3.05209
H         -3.67428        1.38910        2.01088
H         -2.53709        2.36129        2.94910
H          2.44897        3.73189       -2.10433
H          2.83086        5.42404       -1.85836
H          2.49582        4.39796       -0.46737
H         -0.72347        5.39091       -3.16728
H          0.92411        5.88374       -3.54916
H          0.47591        4.17826       -3.59263
H          1.21480        7.07324       -1.26858
H         -0.46898        6.69653       -0.94269
H          0.77158        6.21218        0.20658
H         -3.82331        5.90973       -1.23768
H         -2.43725        6.39356       -2.21812
H         -2.89641        4.67611       -2.12751
C          5.62910       -2.08899        2.25592
C          4.23862        2.71173        1.13607
C          4.49482        1.13655        3.06466
C          6.19985        1.20284        1.20529
C          3.96716       -4.38307        0.20317
C          3.56006       -3.67432       -2.16258
C          5.74454       -3.16422       -1.10754
H          4.88848        3.47427        1.56482
H          4.26458        2.82092        0.05231
H          3.22780        2.92278        1.48145
H          4.82726        0.15910        3.40597
H          5.04894        1.89389        3.61849
H          3.43999        1.23413        3.32044
H          6.34965        1.27021        0.12825
H          6.76280        2.00779        1.67712
H          6.62743        0.26226        1.54256
H          4.34627       -5.34332       -0.14559
H          4.44483       -4.15879        1.15382
H          2.89807       -4.48831        0.38668
H          3.61903       -2.85997       -2.88426
H          4.04899       -4.54483       -2.59935
H          2.51164       -3.93380       -2.02334
H          5.94593       -2.35416       -1.80769
H          6.13452       -4.08747       -1.53535
H          6.30215       -2.96329       -0.19623
H          4.59444       -2.17415        2.59071
H          6.07018       -3.08274        2.18003
H          6.20119       -1.51774        2.98676
