72
-98.10031656
Fe         0.00790        2.78753       -0.00155
P          1.84602       -0.05718        0.05631
P         -1.87991       -0.07286        0.04783
C          1.39846        1.57162        0.75939
C          0.39724        1.78866        1.79086
C          0.31564        3.22002        2.01440
C          1.31344        3.86629        1.17991
C          2.03887        2.84062        0.45028
C         -1.44323        1.56776       -0.65482
C         -2.02038        2.84804       -0.27366
C         -1.39293        3.88575       -1.07371
C         -0.43092        3.24720       -1.95309
C         -0.47884        1.81556       -1.71222
C          3.26029       -0.76482        1.01922
C          4.47592       -0.23156        0.24293
C          2.69944        0.14098       -1.58079
C          4.18549       -0.14808       -1.27857
C         -3.20764       -0.79707       -1.02812
C         -4.43136        0.02411       -0.58623
C         -2.96266        0.20316        1.53810
C         -4.36413        0.42333        0.91872
H         -0.23423        1.02457        2.24284
H         -0.36178        3.72106        2.70927
H          1.52411        4.93780        1.15175
H          2.85712        2.99481       -0.25565
H         -2.79354        3.00035        0.48185
H          0.08526        1.05639       -2.25216
Cl         1.51875       -3.12507       -0.24700
Cl        -1.59946       -3.03613        0.40201
Pd         0.00398       -1.48225        0.04477
H          3.19538       -1.85512        0.92507
C          3.25002       -0.36365        2.48963
H          2.55317        1.18602       -1.87867
C          2.11706       -0.79857       -2.63117
H          5.36157       -0.85435        0.44340
H          4.72569        0.76798        0.62637
H          4.82911        0.60402       -1.75850
H          4.45936       -1.10378       -1.74551
H         -1.61223        4.95465       -1.02725
H          0.19197        3.75048       -2.69626
H          4.21119       -0.64149        2.94413
H          2.30676       -1.83463       -2.32064
H         -3.32849       -1.84590       -0.73365
C         -2.91048       -0.70075       -2.52225
H         -2.59869        1.11013        2.03549
C         -2.95857       -0.96706        2.52015
H         -5.36095       -0.52249       -0.80867
H         -4.47442        0.93128       -1.20684
H         -4.68371        1.46764        1.05101
H         -5.09584       -0.16871        1.48629
H         -3.84568       -0.84659       -3.08065
H         -3.21793       -1.88186        1.97170
C          2.10711       -0.99129        3.26691
H          1.14733       -0.69052        2.85049
H          2.14891       -2.08125        3.22308
H          2.11448       -0.70052        4.31981
C          2.67210       -0.55168       -4.02584
H          3.75530       -0.68202       -4.05247
H          2.24169       -1.23222       -4.76403
H          2.46296        0.46731       -4.35713
C         -1.87091       -1.70280       -2.99602
H         -1.67024       -1.61364       -4.06607
H         -0.92534       -1.56787       -2.47408
H         -2.19459       -2.72764       -2.80490
C         -1.64984       -1.15646        3.26549
H         -0.83831       -1.38472        2.57683
H         -1.37335       -0.25810        3.82029
H         -1.70275       -1.98003        3.98129
H          3.20338        0.73114        2.55794
H          1.02558       -0.70567       -2.64265
H         -2.59351        0.32374       -2.75576
H         -3.77343       -0.82540        3.24385
