72
-98.10020935
Fe        -0.03647        2.81187       -0.02463
P          1.87567       -0.04882       -0.02877
P         -1.84132       -0.10727       -0.08233
C          1.43159        1.59709        0.65299
C          0.46048        1.86172        1.69975
C          0.40358        3.29727        1.91529
C          1.35952        3.92598        1.02258
C          1.98691        2.87623        0.23815
C         -1.42059        1.54597       -0.74827
C         -2.02097        2.81476       -0.36884
C         -1.37890        3.87103       -1.13475
C         -0.38096        3.25939       -1.99380
C         -0.39775        1.82864       -1.74083
C          3.21873       -0.74288        1.04845
C          4.42968        0.08302        0.58220
C          2.94297        0.20942       -1.53270
C          4.35267        0.43454       -0.93335
C         -3.25196       -0.79549       -1.07001
C         -4.47397       -0.34365       -0.25365
C         -2.69679        0.04481        1.56068
C         -4.16434       -0.32612        1.26536
H         -0.10236        1.11066        2.25239
H         -0.22269        3.81009        2.64912
H          1.57007        4.99549        0.95304
H          2.75705        3.01925       -0.52243
H         -2.83594        2.94335        0.34702
H          0.23863        1.08617       -2.22324
Cl         1.65259       -3.06436       -0.26182
Cl        -1.57038       -3.08057        0.16390
Pd         0.03582       -1.51000       -0.04044
H          3.35013       -1.79501        0.77118
C          2.92952       -0.62462        2.54234
H          2.57632        1.11110       -2.03746
C          2.92050       -0.97462       -2.49812
H          5.36777       -0.44258        0.81931
H          4.45894        1.00913        1.17501
H          4.68212        1.47045       -1.10237
H          5.07247       -0.18411       -1.48745
H         -1.62188        4.93530       -1.08945
H          0.27018        3.78059       -2.69943
H          3.86987       -0.74543        3.09802
H          3.74087       -0.85875       -3.22023
H         -3.15968       -1.88722       -1.04412
C         -3.27027       -0.30887       -2.51470
H         -2.61007        1.09766        1.85390
C         -2.06063       -0.85206        2.61664
H         -5.34034       -0.98657       -0.47348
H         -4.76357        0.66436       -0.58266
H         -4.84719        0.35395        1.79601
H         -4.36551       -1.32264        1.68119
H         -4.22957       -0.58512       -2.97410
H         -0.97786       -0.68766        2.63246
C          1.90882       -1.63546        3.03794
H          1.70229       -1.52408        4.10477
H          0.96324       -1.53306        2.50859
H          2.25385       -2.65791        2.87309
C          1.61162       -1.14762       -3.24786
H          1.35834       -0.25208       -3.81818
H          1.65068       -1.98310       -3.95062
H          0.79007       -1.34625       -2.56202
C         -2.12154       -0.85955       -3.34038
H         -2.15082       -0.50888       -4.37449
H         -1.16418       -0.55754       -2.91919
H         -2.13433       -1.95094       -3.35950
C         -2.63710       -0.63688        4.00776
H         -2.16632       -1.28479        4.75067
H         -2.49724        0.39493        4.33582
H         -3.70945       -0.83847        4.02990
H          2.59682        0.39848        2.75952
H          3.15971       -1.88661       -1.93599
H         -3.25308        0.78886       -2.51936
H         -2.18210       -1.89920        2.30977
