75
-122.81331238
P          1.79606       -0.62824       -0.10290
C          1.74628       -1.56857       -1.64038
C          2.11786       -2.89399       -1.62590
C          2.17110       -3.60813       -2.80937
C          1.85717       -2.98758       -4.00221
C          1.48160       -1.65911       -4.01299
C          1.42349       -0.95142       -2.82706
H          1.10899        0.07838       -2.81713
H          1.22542       -1.17613       -4.94157
H          1.89850       -3.54266       -4.92511
H          2.46159       -4.64576       -2.79970
H          2.37796       -3.36144       -0.68961
C          3.10704       -1.36671        0.88979
C          4.38897       -1.36978        0.38819
C          5.41190       -1.95248        1.11427
C          5.14125       -2.53795        2.33482
C          3.85109       -2.54843        2.82609
C          2.83070       -1.96562        2.09742
H          1.81930       -1.97496        2.46980
H          3.63830       -3.00913        3.77676
H          5.93728       -2.99107        2.90288
H          6.41689       -1.95199        0.72533
H          4.58145       -0.93127       -0.57852
C          2.17814        1.08997       -0.50093
C          3.35957        1.72031       -0.18750
C          3.53439        3.06999       -0.45900
C          2.47958        3.78101       -1.03002
C          1.28544        3.16650       -1.33452
C          1.13019        1.79611       -1.07232
O         -0.07829        1.13402       -1.34014
C         -1.24838        1.82634       -0.99010
C         -1.39839        3.19537       -1.26217
C         -2.56572        3.83257       -0.90291
C         -3.59673        3.14904       -0.25874
C         -3.41894        1.80533        0.04151
C         -2.26365        1.15641       -0.32529
P         -1.89701       -0.53533        0.15245
C         -3.34164       -1.24042        0.97758
C         -4.30893       -1.81756        0.18493
C         -5.43612       -2.37466        0.76181
C         -5.59048       -2.34881        2.13326
C         -4.62419       -1.76265        2.92552
C         -3.50236       -1.20537        2.34299
H         -2.76121       -0.71645        2.94961
H         -4.74715       -1.73215        3.99574
H         -6.46767       -2.78245        2.58517
H         -6.19091       -2.82847        0.14082
H         -4.17621       -1.83300       -0.88528
C         -1.62127       -1.56916       -1.29001
C         -1.88090       -1.08814       -2.55288
C         -1.78710       -1.93409       -3.64254
C         -1.43981       -3.25770       -3.45707
C         -1.18194       -3.73602       -2.18757
C         -1.27712       -2.88774       -1.09883
H         -1.10107       -3.25036       -0.09805
H         -0.90813       -4.76821       -2.04376
H         -1.36276       -3.91731       -4.30591
H         -1.98393       -1.55987       -4.63366
H         -2.15904       -0.05450       -2.67935
Pd         0.05561       -0.04987        1.42974
Cl        -1.39690        0.91235        2.85126
Cl         1.77692        0.92191        2.52802
H         -4.17807        1.26982        0.58496
C         -4.83252        3.86064        0.16241
H         -5.69324        3.19060        0.15511
H         -5.05478        4.69343       -0.50601
H         -4.72371        4.25813        1.17225
H         -2.67370        4.88197       -1.11329
S         -0.06782        4.06655       -2.04711
H          2.59115        4.83262       -1.22707
C          4.80054        3.75565       -0.08751
H          4.14296        1.17106        0.30297
H          5.65725        3.09200       -0.21274
H          4.96931        4.63625       -0.70876
H          4.77300        4.07764        0.95428
