64
-97.21911400
Cl        -1.44709       -0.44480       -2.82140
Cl         1.75770       -0.92784       -2.97522
P          1.94236       -0.64687        0.23797
C          2.15513       -2.39727        0.80304
C          3.72952       -0.16670        0.04948
P         -1.28204       -0.26391        0.38665
C          1.20788        0.41710        1.53422
C         -0.22560        0.62075        1.59117
C         -0.51024        1.60078        2.62842
C          0.76135        2.04572        3.17150
C          1.82299        1.31222        2.50260
H         -1.50010        1.92817        2.95166
H          0.89472        2.77707        3.97220
Pd         0.22727       -0.71612       -1.35845
H          2.89412        1.40831        2.69309
C         -5.13777        1.90298       -0.73269
C         -4.91782        0.60118       -1.13620
C         -3.74312       -0.03975       -0.78485
C         -2.79333        0.62048       -0.03899
C         -3.01630        1.91557        0.37030
C         -4.18784        2.56150        0.02217
H         -6.05123        2.40512       -1.00695
H         -5.65703        0.08514       -1.72659
H         -3.55727       -1.05499       -1.09766
H         -2.27137        2.42170        0.95810
H         -4.35785        3.57738        0.33929
C         -2.44433       -4.36520        1.95337
C         -2.17840       -4.19346        0.60874
C         -1.83093       -2.94340        0.13013
C         -1.74911       -1.87985        0.99900
C         -2.02027       -2.04180        2.33788
C         -2.36817       -3.29145        2.81922
H         -2.71505       -5.33911        2.32746
H         -2.24291       -5.03024       -0.06723
H         -1.63257       -2.78821       -0.91839
H         -1.95111       -1.19225        2.99894
H         -2.57798       -3.42573        3.86767
C          4.16029       -0.04726       -1.39614
H          3.85579        0.79363        0.56641
C          4.46240       -1.29989        0.79429
H          4.59764       -1.02800        1.85144
C          3.67426       -2.63360        0.70179
H          5.47620       -1.41821        0.38458
C          1.61496       -2.56498        2.20677
H          1.60363       -3.03229        0.09620
H          3.99293       -3.32865        1.49196
H          3.91405       -3.13383       -0.24774
H          1.73145       -3.59134        2.56273
H          2.14344       -1.90923        2.90163
H          0.55559       -2.30864        2.25868
H          5.22135        0.19805       -1.47814
H          3.99873       -0.99013       -1.92080
H          3.59896        0.72238       -1.92736
Fe         0.72663        2.34504        1.16415
C          1.17770        4.27564        0.58157
C         -0.16814        3.92525        0.16195
C         -0.08462        2.76220       -0.70248
C          1.30940        2.38322       -0.80691
C          2.08842        3.30599       -0.00335
H          1.45540        5.11720        1.22007
H         -1.07786        4.47675        0.40902
H         -0.91196        2.27618       -1.22315
H          1.69618        1.57779       -1.43278
H          3.17621        3.30491        0.09945
