111
-148.55877458
P         -2.57833       -2.11414       -0.34254
P          0.05789       -0.35555       -0.40563
C         -1.69871       -1.86959       -1.90785
C         -0.54224       -1.12085       -1.92555
C         -3.29494       -3.81477       -0.21523
C         -2.49547       -4.67766        0.73663
C         -2.18702       -2.41106       -3.07984
H         -3.10342       -2.97788       -3.06444
C         -1.50612       -2.20933       -4.26801
H         -1.88557       -2.63322       -5.18341
C         -0.34425       -1.46191       -4.28270
H          0.18480       -1.30256       -5.20784
C          0.13585       -0.91089       -3.10827
H          1.03528       -0.31538       -3.10560
Pd        -1.12349       -1.40432        1.29551
Cl        -2.60887       -2.07866        2.83218
Cl         0.40913       -0.61548        2.73125
C         -4.74314       -3.53743        0.23030
C         -4.11471       -1.09179       -0.21193
H         -2.92161       -5.68010        0.82089
H         -1.45816       -4.77570        0.40751
H         -2.48136       -4.24110        1.73644
H         -4.78627       -3.57314        1.32772
H         -5.41231       -4.33889       -0.11820
H         -4.07980       -0.61351        0.77599
C         -5.23724       -2.14601       -0.26027
C         -4.17828       -0.05469       -1.31350
H         -3.28080       -4.24041       -1.22643
H         -5.59819       -2.23060       -1.29453
H         -6.10441       -1.80820        0.32732
H         -3.32401        0.62503       -1.27130
H         -4.16458       -0.53250       -2.29479
H         -5.09116        0.54194       -1.24901
C         -1.27853        4.00238       -0.47609
C         -1.85901        3.10609        0.45664
C         -1.44423        1.78596        0.44163
C         -0.44022        1.36600       -0.39133
C          0.19674        2.25177       -1.22072
C         -0.17428        3.58609       -1.26263
O         -1.82270        5.30325       -0.64690
C         -2.93440        3.53563        1.46753
H         -1.91188        1.06670        1.08891
H          0.98992        1.88069       -1.84653
C          0.59409        4.55056       -2.17978
C          4.54382       -0.83856        0.22180
C          3.86801        0.28515        0.76159
C          2.50343        0.39220        0.55104
C          1.82841       -0.52707       -0.20780
C          2.49298       -1.56407       -0.80882
C          3.86045       -1.72161       -0.65331
O          5.89084       -1.10132        0.58752
C          4.57620        1.35270        1.60982
H          1.93707        1.18860        1.00258
H          1.92286       -2.25864       -1.40097
C          4.57287       -2.85254       -1.41211
C         -4.32629        3.33875        0.84847
C         -2.84376        2.68193        2.75401
C         -2.74257        5.00342        1.89013
C          2.05888        4.09053       -2.35568
C         -0.07727        4.58126       -3.56109
C          0.63916        5.96730       -1.57894
C         -2.86952        5.37270       -1.60696
H         -5.10883        3.64330        1.54292
H         -4.43972        3.92096       -0.06281
H         -4.49022        2.29181        0.59575
H         -3.50878        3.07126        3.52444
H         -3.13501        1.64796        2.57528
H         -1.82968        2.68782        3.15272
H         -3.46462        5.28890        2.65471
H         -1.74234        5.15852        2.29321
H         -2.87081        5.67921        1.04840
H          2.63545        4.83612       -2.90277
H          2.53643        3.94361       -1.38792
H          2.12571        3.16004       -2.91742
H         -0.08867        3.58637       -4.00577
H         -1.10667        4.92411       -3.49163
H          0.45452        5.24837       -4.23906
H          1.23791        6.63615       -2.19669
H         -0.35654        6.39660       -1.49978
H          1.07465        5.94669       -0.58045
H         -2.60217        6.08533       -2.38707
H         -3.04294        4.39256       -2.05306
H         -3.78407        5.72125       -1.12757
C          6.02679       -1.93177        1.73404
C          3.87724        2.72295        1.45861
C          4.52432        0.93719        3.08795
C          6.03599        1.54424        1.16043
C          6.02300       -2.46448       -1.75410
C          4.55346       -4.12994       -0.55925
C          3.85839       -3.14243       -2.75219
H          3.79017        2.99723        0.40816
H          2.88066        2.72024        1.89740
H          4.44549        3.50473        1.96206
H          5.00394        1.68313        3.72109
H          3.49221        0.82486        3.41933
H          5.02702       -0.01358        3.24793
H          6.51652        2.34569        1.72102
H          6.62072        0.64069        1.31290
H          6.08123        1.79642        0.10148
H          6.50638       -3.23944       -2.34846
H          6.04748       -1.53570       -2.32310
H          6.61806       -2.32061       -0.85580
H          5.04128       -4.95401       -1.07925
H          5.06640       -3.97985        0.38764
H          3.52944       -4.42942       -0.33731
H          2.87257       -3.57875       -2.59862
H          4.43118       -3.85047       -3.35068
H          3.74219       -2.22894       -3.33492
H          6.59220       -2.82619        1.47304
H          6.57454       -1.39763        2.51021
H          5.04534       -2.21882        2.11371
