58
-89.86853387
P          1.61528        0.28276        0.88574
C          3.02554        1.36255        0.62179
C          4.15716        0.87799        0.00629
C          5.23678        1.71555       -0.20804
C          5.17332        3.03501        0.19430
C          4.03457        3.51802        0.80832
C          2.95652        2.67735        1.02178
H          2.05553        3.04508        1.48686
H          4.18999       -0.15242       -0.30827
C          1.96553       -1.37517        0.28234
C          2.26736       -2.40360        1.14563
C          2.51291       -3.66987        0.64616
C          2.46567       -3.89581       -0.71521
C          2.18242       -2.85742       -1.57958
C          1.93449       -1.59322       -1.07693
H          1.71778       -0.76972       -1.73907
H          2.32662       -2.21463        2.20485
C          1.19955        0.31335        2.67474
C          0.06454       -0.61516        3.07146
C         -1.30999       -0.13512        2.63952
P         -1.62943       -0.25685        0.83491
C         -3.28354        0.37062        0.53087
C         -4.26998       -0.47683        0.08094
C         -5.53998        0.01420       -0.16229
C         -5.81108        1.35219        0.04617
C         -4.81722        2.19895        0.49629
C         -3.54792        1.70471        0.73943
H         -2.75856        2.35561        1.08137
H         -4.04088       -1.51729       -0.08365
C         -1.45555       -1.92926        0.19671
C         -1.36407       -3.02196        1.02845
C         -1.21081       -4.28526        0.48651
C         -1.16071       -4.44761       -0.88402
C         -1.27164       -3.35132       -1.71559
C         -1.42155       -2.09019       -1.16989
H         -1.51617       -1.22028       -1.80065
H         -1.42813       -2.89118        2.09586
Pd        -0.13369        0.92064       -0.49051
Cl         1.22356        2.27767       -1.65093
Cl        -1.80015        1.17218       -1.98257
H         -2.10327       -0.71203        3.12129
H         -1.46172        0.90710        2.92618
H          0.24933       -1.61412        2.65923
H          0.07243       -0.74827        4.16465
H          2.12442        0.05689        3.19739
H          0.96426        1.34527        2.94088
H          6.12334        1.33925       -0.69145
H          3.98226        4.54944        1.11603
H          2.74173       -4.47919        1.31990
H          2.14893       -3.03088       -2.64256
H         -6.31422       -0.64590       -0.51739
H         -5.02739        3.24410        0.65355
H         -1.13072       -5.14254        1.13454
H         -1.23735       -3.47569       -2.78537
H          6.01239        3.69004        0.02516
H          2.65310       -4.88348       -1.10385
H         -6.79934        1.73702       -0.14606
H         -1.03762       -5.43200       -1.30528
