105
-153.07263092
Cl        -0.89293        2.06199       -2.85389
Pd         0.09157        1.49851       -0.90911
P          1.36824        0.73693        0.87626
N          0.63063       -0.49671        1.88412
C          0.03161       -1.72677        1.65239
C         -0.10239       -2.31876        0.37224
C         -0.82924       -3.51939        0.23519
C         -0.96430       -4.12798       -1.14148
C         -1.50014       -5.56838       -1.15622
C         -2.65799       -5.73633       -0.16809
C         -2.20305       -5.40148        1.26029
C         -1.39761       -4.13054        1.35458
C         -1.21096       -3.55913        2.60603
C         -0.51304       -2.38873        2.75253
H         -0.40622       -1.94524        3.72727
H         -1.64133       -4.04002        3.46817
H         -3.07139       -5.32101        1.92682
H         -3.47924       -5.06808       -0.45577
H         -1.80943       -5.85937       -2.17003
H         -1.62137       -3.48431       -1.73805
C          0.65739       -1.83141       -0.80433
C         -0.02448       -1.22286       -1.89390
C          0.68308       -0.99655       -3.07819
C          1.99887       -1.36236       -3.19655
C          2.66644       -1.99648       -2.15590
C          4.07890       -2.46786       -2.37986
C          4.43169       -3.68922       -1.51980
C          4.11108       -3.41249       -0.04800
C          2.62967       -3.04579        0.15624
C          1.99687       -2.23694       -0.95490
H          2.04461       -3.96495        0.28048
H          4.74325       -2.58971        0.30318
H          5.48717       -3.96906       -1.64712
H          4.76704       -1.64497       -2.15764
H          2.52613       -1.17446       -4.11643
H          0.18186       -0.50806       -3.89520
N         -1.36512       -0.82399       -1.81389
P         -1.85618        0.19469       -0.45650
C         -2.80719       -0.73310        0.74637
C         -3.55855       -1.79211        0.29724
C         -4.35142       -2.49763        1.18452
C         -4.39323       -2.14302        2.52606
C         -3.65095       -1.04951        2.95245
C         -2.86253       -0.34250        2.06290
H         -2.28762        0.50667        2.39197
H         -3.69215       -0.75679        3.98768
C         -5.24532       -2.89939        3.48435
H         -4.94005       -3.33043        0.83995
H         -3.51606       -2.06289       -0.74581
C         -2.97585        1.49584       -0.98756
C         -2.92387        2.72756       -0.37849
C         -3.79098        3.72730       -0.77950
C         -4.71481        3.49793       -1.79027
C         -4.76538        2.24009       -2.37612
C         -3.89642        1.24127       -1.97515
H         -3.93648        0.26269       -2.42600
H         -5.48917        2.04776       -3.14957
C         -5.66207        4.56791       -2.20892
H         -3.75331        4.69501       -0.30916
H         -2.20365        2.90513        0.40444
H         -1.72280       -0.35698       -2.63732
H          0.81844       -0.24344        2.84661
C          1.31675        2.24669        1.84844
C          2.43909        3.01663        2.03999
C          2.35012        4.19121        2.76403
C          1.13714        4.60036        3.30222
C          0.01231        3.81547        3.08658
C          0.10464        2.64038        2.36292
H         -0.76514        2.02889        2.18791
H         -0.93680        4.13206        3.48422
C          1.03553        5.88121        4.05491
H          3.22403        4.80297        2.90949
H          3.37735        2.70395        1.61191
C          3.10141        0.35665        0.62218
C          3.75018        0.70998       -0.53666
C          5.10324        0.46295       -0.67195
C          5.81831       -0.13492        0.35652
C          5.15361       -0.45576        1.53256
C          3.79745       -0.21298        1.66214
H          3.27766       -0.45857        2.57468
H          5.70294       -0.90023        2.34482
C          7.27807       -0.39057        0.21420
H          5.61540        0.74371       -1.57644
H          3.20245        1.20670       -1.31945
Cl         1.74770        2.98390       -1.23107
H         -1.60151       -6.22652        1.66006
H         -0.69176       -6.25961       -0.88648
H         -3.07255       -6.75308       -0.22024
H          0.01137       -4.08918       -1.64194
H          4.38627       -4.27437        0.57595
H          2.50444       -2.49765        1.09775
H          4.22311       -2.69351       -3.44415
H          3.85107       -4.55513       -1.86210
H         -4.79163       -2.92626        4.47613
H         -6.22949       -2.43796        3.57580
H         -5.38572       -3.93077        3.15765
H         -5.22167        5.55711       -2.07653
H         -5.93183        4.46484       -3.26088
H         -6.57931        4.52573       -1.62000
H          1.96452        6.10273        4.58215
H          0.82583        6.71131        3.37899
H          0.23622        5.84041        4.79620
H          7.53722       -0.62127       -0.82013
H          7.85595        0.48261        0.51992
H          7.59213       -1.23501        0.82938
