72
-108.40022626
Cl         1.68658       -0.91880        2.63475
Cl        -0.84685        0.96705        2.81406
P         -1.13867        1.13980       -0.27850
P          2.25928       -0.13925       -0.37206
C          3.26050        1.45369       -0.11499
C          3.61082        1.59053        1.36826
C          4.53018        1.41089       -0.95747
C          3.32595       -1.69848       -0.14235
C          4.15498       -1.96973       -1.40413
C          1.44553       -0.40356       -2.05450
C          1.51442        0.77838       -2.99877
C         -1.13647       -0.18274       -1.52509
C          0.02555       -0.94004       -1.98904
C         -0.47243       -2.01886       -2.84450
C         -1.91818       -1.92886       -2.89813
C         -2.32409       -0.79740       -2.08655
C          2.41274        2.65695       -0.50845
H          4.12322        2.53577        1.55466
H          2.71672        1.57537        1.99147
H          5.06290        2.36130       -0.89639
H          4.30769        1.22422       -2.00717
C          4.26645       -1.58718        1.05354
H          4.91014       -2.73231       -1.20648
H          4.67243       -1.07695       -1.74980
H          2.04933       -1.20489       -2.49065
H          0.87036        1.58227       -2.64969
H          1.15494        0.50539       -3.99307
H          2.52794        1.16174       -3.11200
H          0.14797       -2.71022       -3.41788
H         -2.58274       -2.57867       -3.47199
Pd         0.50854        0.28475        1.15226
H         -3.34697       -0.46795       -1.89262
C          2.34812       -2.84326        0.07814
H          3.54459       -2.34634       -2.22395
H          3.73282       -1.29864        1.95680
H          4.74392       -2.54761        1.25310
H          5.06446       -0.86993        0.87022
H          1.82821       -2.72637        1.02768
H          1.60697       -2.88429       -0.72134
H          2.86897       -3.80250        0.10428
H          4.27074        0.79868        1.71200
H          5.21371        0.63733       -0.61141
H          2.19723        2.67885       -1.57347
H          1.47176        2.65726        0.03851
H          2.92961        3.58808       -0.27015
C         -2.80991        1.21527        0.41626
C         -3.24537        2.15704        1.31507
C         -4.57706        1.86191        1.60656
C         -4.90259        0.75075        0.86896
O         -3.82733        0.34370        0.13341
H         -2.65767        2.95746        1.73320
H         -5.22248        2.39882        2.28240
H         -5.86565        0.25542        0.86204
C         -0.74735        2.75881       -0.96341
C         -0.67124        3.89852       -0.20146
C         -0.34870        4.94640       -1.06490
C         -0.24173        4.40060       -2.32062
O         -0.48021        3.05660       -2.27187
H         -0.81272        3.95944        0.86556
H         -0.20949        5.98122       -0.79784
H         -0.00133        4.94214       -3.22712
Fe        -1.29900       -2.15030       -0.95774
C         -2.99050       -2.83094       -0.01810
C         -2.20102       -2.01329        0.88275
C         -0.89561       -2.62314        1.01059
C         -0.86915       -3.80520        0.16891
C         -2.17491       -3.95244       -0.44793
H         -4.03012       -2.64623       -0.29823
H         -2.53373       -1.10413        1.38687
H         -0.09485       -2.25984        1.65696
H         -0.04038       -4.51110        0.07920
H         -2.48684       -4.75920       -1.11483
