111
-148.55647693
P         -2.51798       -2.02128       -0.87736
P          0.18876       -0.42269       -0.48125
C         -1.37989       -1.81904       -2.27384
C         -0.18660       -1.15478       -2.08755
C         -3.36561       -3.66584       -0.89428
C         -2.81009       -4.57924        0.17659
C         -1.70799       -2.30858       -3.52185
H         -2.65140       -2.80888       -3.66701
C         -0.83207       -2.13880       -4.58023
H         -1.08696       -2.52147       -5.55503
C          0.36531       -1.47608       -4.39008
H          1.04554       -1.34086       -5.21481
C          0.68647       -0.97728       -3.14051
H          1.60886       -0.44139       -2.97952
Pd        -1.31091       -1.40761        0.98282
Cl        -3.04932       -1.98523        2.27874
Cl        -0.02940       -0.75773        2.71228
C         -4.84796       -3.28906       -0.71077
C         -3.98168       -0.89176       -0.95028
H         -2.94350       -4.14091        1.16681
H         -3.31331       -5.54898        0.17502
H         -1.74021       -4.75106        0.03610
H         -5.09391       -3.33981        0.35892
H         -5.49655       -4.03256       -1.19859
H         -4.08404       -0.46208        0.05535
C         -5.14606       -1.85705       -1.24047
C         -3.79097        0.19799       -1.98291
H         -3.20004       -4.09390       -1.89103
H         -5.31172       -1.89503       -2.32598
H         -6.08215       -1.46690       -0.81267
H         -2.92734        0.82160       -1.74343
H         -3.62136       -0.23091       -2.97225
H         -4.66788        0.84633       -2.04695
C         -1.25397        3.89910       -0.37238
C         -1.00981        3.27253       -1.62156
C         -0.54085        1.96942       -1.62277
C         -0.38142        1.27587       -0.45211
C         -0.71401        1.84399        0.74889
C         -1.19296        3.13918        0.82328
O         -1.52589        5.29211       -0.31924
C         -1.22757        3.99445       -2.96058
H         -0.29429        1.47375       -2.54493
H         -0.59262        1.25006        1.63772
C         -1.62567        3.69192        2.19010
C          4.52662       -0.81588        0.85022
C          3.76770        0.32165        1.22501
C          2.45269        0.39956        0.79958
C          1.90987       -0.56075       -0.01287
C          2.66738       -1.61351       -0.45592
C          3.99498       -1.74478       -0.08131
O          5.79929       -1.04597        1.43713
C          4.32527        1.43898        2.12015
H          1.82180        1.21060        1.11794
H          2.20152       -2.34100       -1.09781
C          4.82674       -2.89666       -0.66756
C         -2.41242        4.97332       -2.87135
C          0.05388        4.74810       -3.34668
C         -1.56086        2.98444       -4.08246
C         -2.18605        2.55778        3.08009
C         -0.41071        4.31406        2.89464
C         -2.74655        4.73603        2.03857
C         -0.36877        6.10094       -0.14885
H         -2.60889        5.44001       -3.83627
H         -3.31636        4.45361       -2.55529
H         -2.21658        5.76798       -2.15549
H         -0.06592        5.25806       -4.30223
H          0.31286        5.49362       -2.59889
H          0.89411        4.05962       -3.43398
H         -0.71043        2.34577       -4.31654
H         -2.39966        2.35002       -3.79799
H         -1.83249        3.50364       -5.00128
H         -2.61665        2.96132        3.99608
H         -2.96683        2.00503        2.55826
H         -1.40968        1.85408        3.37622
H         -0.68877        4.72026        3.86677
H          0.36669        3.56692        3.05192
H          0.01901        5.11924        2.30323
H         -3.59483        4.31231        1.50199
H         -3.09738        5.07863        3.01170
H         -2.40555        5.60808        1.48653
H         -0.43780        6.64818        0.79101
H          0.53030        5.48330       -0.14447
H         -0.30876        6.82548       -0.96090
C          5.75318       -1.82165        2.62825
C          5.83779        1.62512        1.90373
C          3.65333        2.79117        1.78711
C          4.03631        1.09730        3.58990
C          6.31037       -2.50395       -0.79102
C          4.68043       -4.13738        0.22605
C          4.33704       -3.25134       -2.09036
H          6.39302        0.73702        2.19460
H          6.05339        1.82484        0.85465
H          6.21828        2.45891        2.49324
H          4.13359        3.60574        2.32880
H          3.72614        3.00857        0.72182
H          2.60129        2.79922        2.06723
H          4.50836        0.16056        3.87655
H          4.40630        1.87856        4.25328
H          2.96446        0.99143        3.75631
H          6.75398       -2.31664        0.18362
H          6.88709       -3.29577       -1.26841
H          6.41920       -1.59842       -1.38698
H          5.24937       -4.97613       -0.17429
H          5.03639       -3.94105        1.23456
H          3.63607       -4.44046        0.29649
H          3.34195       -3.69331       -2.07690
H          5.00221       -3.97634       -2.55890
H          4.30999       -2.36448       -2.72304
H          6.36155       -2.71751        2.50507
H          6.16126       -1.24423        3.45759
H          4.72540       -2.10758        2.85568
