58
-89.86743933
P          1.65334        0.31364        0.86342
C          3.07269        1.38202        0.60891
C          4.21583        0.88138        0.02858
C          5.30319        1.71099       -0.17782
C          5.23581        3.03835        0.19706
C          4.08547        3.53730        0.77574
C          2.99970        2.70462        0.98143
H          2.08993        3.08421        1.41918
H          4.25150       -0.15519       -0.26479
C          1.99628       -1.35498        0.28564
C          1.98112       -1.58805       -1.07137
C          2.21760       -2.86131       -1.55633
C          2.47339       -3.89370       -0.67633
C          2.50455       -3.65299        0.68301
C          2.27035       -2.37776        1.16476
H          2.31559       -2.17768        2.22266
H          1.78539       -0.76876       -1.74524
C          1.19750        0.36911        2.64178
C          0.05041       -0.55000        3.02999
C         -1.32153       -0.05814        2.59752
P         -1.67539       -0.22339        0.80087
C         -3.34354        0.37591        0.51898
C         -4.32077       -0.48723        0.07884
C         -5.60199       -0.01743       -0.14696
C         -5.89333        1.31520        0.06859
C         -4.90849        2.17784        0.50828
C         -3.62795        1.70480        0.73413
H         -2.84535        2.36826        1.06730
H         -4.07577       -1.52312       -0.09158
C         -1.48879       -1.90942        0.20156
C         -1.40549       -2.98236        1.05955
C         -1.23756       -4.25697        0.54935
C         -1.16423       -4.45031       -0.81610
C         -1.26692       -3.37388       -1.67429
C         -1.43208       -2.10140       -1.16019
H         -1.52217       -1.24696       -1.81213
H         -1.48657       -2.82703        2.12259
Pd        -0.11225        0.88731       -0.51550
Cl         1.26577        2.22082       -1.67562
Cl        -1.85468        1.16302       -1.91624
H         -2.11797       -0.60983        3.10323
H         -1.45411        0.99295        2.86007
H          0.22755       -1.54971        2.61651
H          0.05401       -0.68586        4.12284
H          2.11090        0.11546        3.18566
H          0.96231        1.40540        2.89039
H          6.19897        1.32229       -0.63361
H          4.03029        4.57471        1.06205
H          2.19698       -3.04634       -2.61769
H          2.71151       -4.45792        1.36899
H         -6.36927       -0.68980       -0.49404
H         -5.13447        3.21885        0.67095
H         -1.16417       -5.09880        1.21810
H         -1.21488       -3.52262       -2.74024
H          6.08100        3.68705        0.03405
H          2.65206       -4.88830       -1.05118
H         -6.89036        1.68355       -0.11019
H         -1.02973       -5.44346       -1.21262
