58
-89.86404506
P          1.53967       -0.06176        0.68913
C          2.97390        1.02146        0.74490
C          2.82439        2.38586        0.84545
C          3.94263        3.19879        0.88854
C          5.20383        2.63918        0.83391
C          5.34992        1.26970        0.73539
C          4.22944        0.45948        0.69116
H          4.32704       -0.61143        0.61045
H          1.83584        2.81464        0.87207
C          1.98221       -1.62886       -0.06780
C          2.21106       -2.75335        0.69249
C          2.56004       -3.93987        0.07278
C          2.68342       -3.99010       -1.30199
C          2.46686       -2.85601       -2.05920
C          2.11956       -1.67210       -1.43593
H          1.96306       -0.76960       -2.00445
H          2.11759       -2.70202        1.76497
C          0.93505       -0.25088        2.41916
C         -0.01392        0.88078        2.79520
C         -1.47296        0.61960        2.44611
P         -1.82293        0.14913        0.69542
C         -3.60315        0.31532        0.46589
C         -4.15103        1.26026       -0.36963
C         -5.52231        1.35548       -0.50744
C         -6.34382        0.49758        0.19597
C         -5.79494       -0.45333        1.03318
C         -4.42036       -0.54331        1.16715
H         -3.97892       -1.28542        1.81362
H         -3.49910        1.91518       -0.92051
C         -1.44700       -1.57973        0.35271
C         -1.29136       -1.95613       -0.96194
C         -1.00882       -3.27315       -1.27591
C         -0.89264       -4.20911       -0.26852
C         -1.06765       -3.83219        1.04776
C         -1.35197       -2.51504        1.35744
H         -1.51677       -2.22383        2.38134
H         -1.39216       -1.21616       -1.74053
Pd        -0.06851        1.04700       -0.58169
Cl         1.62718        1.51905       -1.98242
Cl        -1.56788        2.38090       -1.56419
H         -1.88022       -0.17815        3.06914
H         -2.08274        1.50395        2.64760
H          0.06387        1.09096        3.87345
H          0.32283        1.80337        2.30335
H          0.45811       -1.22300        2.53770
H          1.82956       -0.25861        3.04744
H          3.82829        4.26800        0.95946
H          6.33369        0.83216        0.69042
H          2.73275       -4.82469        0.66313
H          2.56918       -2.89139       -3.13129
H         -5.94799        2.09614       -1.16443
H         -6.43482       -1.12542        1.58106
H         -0.87450       -3.56525       -2.30440
H         -0.98441       -4.56434        1.83414
H          6.07541        3.27253        0.86533
H          2.95232       -4.91559       -1.78449
H         -7.41409        0.56886        0.08989
H         -0.66585       -5.23474       -0.50995
