72
-98.10224348
Fe        -0.00243        2.83222        0.04427
P          1.87590       -0.02791       -0.05622
P         -1.83039       -0.03773        0.04298
C          1.42708        1.56611        0.72144
C          0.40517        1.74820        1.73647
C          0.33860        3.16193        2.06070
C          1.33624        3.85431        1.26552
C          2.00845        2.86770        0.43715
C         -1.41983        1.60445       -0.66945
C         -1.99319        2.88377       -0.27626
C         -1.33391        3.93244       -1.03676
C         -0.35718        3.30473       -1.90774
C         -0.41580        1.87098       -1.68330
C          3.28656       -0.74055        0.91523
C          4.48239        0.03309        0.33559
C          2.82036        0.25814       -1.63519
C          4.29227        0.37211       -1.16992
C         -3.12509       -0.81877       -1.03911
C         -4.34155        0.06345       -0.70898
C         -2.97938        0.27180        1.47808
C         -4.34134        0.51577        0.78292
H         -0.20241        0.95522        2.17331
H         -0.32864        3.61949        2.79452
H          1.54864        4.92530        1.28997
H          2.81567        3.06182       -0.27218
H         -2.77590        3.03248        0.47027
H          0.19120        1.12007       -2.18471
Cl         1.57718       -3.07592       -0.31067
Cl        -1.50563       -3.07474        0.44221
Pd         0.02827       -1.47217        0.03002
H          3.35365       -1.80280        0.65360
C          3.14205       -0.57539        2.42430
H          2.46616        1.20519       -2.05920
C          2.63216       -0.87747       -2.64218
H          5.41663       -0.52607        0.49979
H          4.59805        0.96381        0.91004
H          4.68816        1.37473       -1.38974
H          4.90461       -0.31180       -1.77389
H         -1.54588        5.00247       -0.97379
H          0.29748        3.81749       -2.61652
H          4.09851       -0.82635        2.90366
H          3.42599       -0.81827       -3.40000
H         -3.29104       -1.83490       -0.66202
C         -2.75312       -0.86506       -2.52500
H         -2.62161        1.17269        1.99078
C         -3.04947       -0.89435        2.46119
H         -5.27698       -0.45764       -0.96591
H         -4.31023        0.94620       -1.36468
H         -4.63243        1.57356        0.86173
H         -5.11983       -0.03247        1.33197
H         -3.66488       -0.74810       -3.12726
H         -3.32072       -1.80228        1.90687
C          2.02984       -1.42035        3.01607
H          1.06803       -1.13647        2.59425
H          2.17723       -2.47993        2.79888
H          1.95816       -1.30958        4.10045
C          1.28072       -0.88669       -3.33431
H          1.12852        0.02041       -3.92230
H          1.17493       -1.73602       -4.01319
H          0.46967       -0.94740       -2.61083
C         -2.04668       -2.15381       -2.92238
H         -1.16807       -2.33774       -2.30469
H         -2.70244       -3.01683       -2.79233
H         -1.72350       -2.14182       -3.96566
C         -1.77150       -1.12411        3.24580
H         -1.87564       -1.93490        3.97051
H         -0.95459       -1.39384        2.57970
H         -1.47257       -0.22902        3.79430
H          2.97584        0.48604        2.65025
H          2.80164       -1.83014       -2.12363
H         -2.13737        0.01059       -2.76661
H         -3.88213       -0.72247        3.15756
