171
-217.84706868
P         -1.56385        0.38325       -0.44819
P          1.58515       -0.36809       -0.24651
C         -0.79566        1.38362       -1.72838
C          1.00707       -1.28706       -1.67813
C          0.06660        0.81383       -2.65797
C          0.72519        1.65493       -3.57596
C          0.46146        3.01434       -3.55859
C         -0.42357        3.55517       -2.65041
C         -1.04223        2.73485       -1.72757
C          1.25031       -2.63819       -1.72048
C          0.76951       -3.39859       -2.76831
C          0.02451       -2.79856       -3.76110
C         -0.23350       -1.43817       -3.73674
C          0.28632       -0.65735       -2.68623
Cl         1.31442        0.17171        3.04619
Cl        -1.81751       -0.41005        2.73897
C         -1.04467       -0.82863       -4.82644
C          1.69206        1.11210       -4.56962
H         -0.62651        4.61364       -2.65525
H         -1.72220        3.15099       -1.00190
H          1.81985       -3.10103       -0.93084
H          0.97155       -4.45651       -2.80635
H          0.96079        3.65195       -4.26859
H         -0.36751       -3.38973       -4.57154
C         -3.65793       -3.36197       -1.87931
C         -2.75168       -3.45717       -0.83014
C         -2.09712       -2.29904       -0.43451
C         -2.35135       -1.10421       -1.06034
C         -3.25097       -1.02478       -2.09462
C         -3.92678       -2.16092       -2.52514
H         -4.18546       -4.24124       -2.19747
H         -1.39155       -2.32575        0.37796
H         -3.42751       -0.06601       -2.55174
C         -4.55339        2.79900        1.96347
C         -3.19958        3.08661        2.09341
C         -2.30524        2.36012        1.31922
C         -2.75094        1.37334        0.47528
C         -4.09057        1.09565        0.36691
C         -5.02335        1.81217        1.10539
H         -5.26614        3.34485        2.55249
H         -1.24730        2.54678        1.39669
H         -4.40131        0.30161       -0.28793
C          4.30332       -2.91446        2.34858
C          2.94772       -3.21811        2.30531
C          2.13334       -2.44771        1.48465
C          2.65878       -1.40446        0.76273
C          3.99741       -1.11030        0.83083
C          4.85174       -1.86374        1.62281
H          4.94082       -3.51096        2.97364
H          1.07658       -2.64106        1.42040
H          4.38010       -0.27475        0.27178
C          3.84353        3.44500       -1.13863
C          2.79361        3.48601       -0.22879
C          2.08650        2.31244       -0.00586
C          2.43377        1.15436       -0.65575
C          3.47521        1.12859       -1.54999
C          4.20589        2.28226       -1.80851
H          4.41070        4.33747       -1.32366
H          1.26361        2.29541        0.68738
H          3.71916        0.19639       -2.03073
Pd        -0.10692       -0.05876        1.32258
C         -1.00997       -5.20134       -0.40633
C         -2.45591       -4.77562       -0.10146
C         -3.40637       -5.90199       -0.55058
C         -2.62995       -4.57328        1.41674
H         -0.74809       -6.11459        0.12765
H         -0.88258       -5.38535       -1.47257
H         -0.30422       -4.42457       -0.11586
H         -3.20480       -6.82023        0.00101
H         -4.44663       -5.62972       -0.37282
H         -3.28228       -6.12299       -1.61047
H         -3.64031       -4.23548        1.64596
H         -2.45388       -5.50329        1.95694
H         -1.93491       -3.82998        1.80421
C         -6.36237       -2.45442       -3.02030
C         -4.99100       -2.11197       -3.63091
C         -4.64613       -3.13493       -4.72992
C         -5.07867       -0.71412       -4.27425
H         -6.36242       -3.45379       -2.58644
H         -6.61981       -1.74828       -2.23137
H         -7.14682       -2.41732       -3.77597
H         -5.37141       -3.09224       -5.54232
H         -3.66038       -2.93747       -5.14870
H         -4.64530       -4.15233       -4.34109
H         -5.37104        0.03804       -3.54182
H         -4.12361       -0.42017       -4.70814
H         -5.82182       -0.70136       -5.07142
C         -1.71111        3.42862        4.07754
C         -2.65867        4.12773        3.08328
C         -3.79177        4.80286        3.87897
C         -1.88847        5.21293        2.31077
H         -0.86121        2.97768        3.56680
H         -1.32253        4.13508        4.81061
H         -2.23317        2.63619        4.61323
H         -4.35495        4.07042        4.45700
H         -3.38932        5.53561        4.57833
H         -4.48060        5.32465        3.21490
H         -1.50554        5.97750        2.98649
H         -1.04123        4.78572        1.77814
H         -2.53406        5.69874        1.57939
C         -6.83318        0.41801       -0.01628
C         -6.52795        1.51968        1.01855
C         -7.27433        2.79963        0.59951
C         -7.03109        1.04954        2.39530
H         -7.90509        0.23066       -0.07781
H         -6.49118        0.70842       -1.00953
H         -6.35063       -0.52075        0.25532
H         -6.90984        3.15960       -0.36247
H         -8.34439        2.61442        0.50721
H         -7.13677        3.59665        1.32917
H         -6.88205        1.81697        3.15396
H         -8.09461        0.81362        2.36287
H         -6.49570        0.15561        2.71473
C          3.00922       -5.68983        2.71615
C          2.38910       -4.35683        3.17047
C          0.85610       -4.46131        3.05193
C          2.73853       -4.09230        4.64708
H          2.62231       -6.52119        3.30518
H          2.78021       -5.88279        1.66814
H          4.09316       -5.67840        2.82513
H          0.47055       -5.25548        3.69101
H          0.37532       -3.53081        3.35372
H          0.55910       -4.69029        2.02991
H          2.33407       -3.13309        4.96986
H          2.32409       -4.86776        5.29100
H          3.81611       -4.07126        4.80411
C          7.12807       -2.43181        2.61110
C          6.34009       -1.49213        1.67889
C          6.48059       -0.05029        2.20294
C          6.94066       -1.58786        0.26394
H          6.74817       -2.38087        3.63131
H          7.06673       -3.46495        2.26961
H          8.18203       -2.15525        2.63774
H          5.98430        0.66139        1.54399
H          6.03378        0.04412        3.19242
H          7.52893        0.23850        2.27572
H          6.82915       -2.59615       -0.13430
H          6.44699       -0.90115       -0.42251
H          8.00264       -1.34312        0.27305
C          1.09408        5.31313       -0.13363
C          2.38449        4.77285        0.50241
C          3.47919        5.85319        0.40371
C          2.14082        4.47422        1.99597
H          0.29857        4.57116       -0.08338
H          0.75207        6.21443        0.37472
H          1.25642        5.55698       -1.18323
H          4.42863        5.48205        0.78941
H          3.62631        6.17514       -0.62681
H          3.20553        6.73472        0.98341
H          1.90639        5.38763        2.54235
H          1.30894        3.78659        2.13896
H          3.02599        4.02802        2.44859
C          5.27444        3.39279       -3.79738
C          5.42773        2.28463       -2.73822
C          5.59268        0.93556       -3.46551
C          6.69120        2.54322       -1.89722
H          4.36080        3.25413       -4.37402
H          5.23333        4.37996       -3.33915
H          6.11471        3.38603       -4.49148
H          6.44706        0.96296       -4.14169
H          5.76200        0.12461       -2.75767
H          4.70991        0.69736       -4.05766
H          6.80970        1.77424       -1.13395
H          7.58419        2.53997       -2.52199
H          6.63797        3.50774       -1.39330
H         -1.44508        0.14203       -4.53078
H          2.56557        1.75910       -4.65342
H         -1.88909       -1.46752       -5.08537
H         -0.44539       -0.68829       -5.72693
H          1.23611        1.03894       -5.55781
H          2.04360        0.11978       -4.28388
