171
-217.84572778
P         -1.57596        0.31742       -0.42304
P          1.66111       -0.41723       -0.26144
C         -0.79816        1.26675       -1.73210
C          1.03146       -1.40110       -1.62788
C          0.03315        0.64860       -2.65848
C          0.66693        1.44141       -3.63371
C          0.42507        2.80521       -3.66045
C         -0.41774        3.39579       -2.74280
C         -1.02387        2.62074       -1.77352
C          1.27040       -2.75400       -1.61232
C          0.72744       -3.56855       -2.58600
C         -0.07154       -3.01904       -3.56583
C         -0.32305       -1.65772       -3.60268
C          0.25262       -0.82332       -2.62477
Cl         1.37576        0.18846        2.98700
Cl        -1.73087       -0.47730        2.75743
C         -1.21210       -1.11424       -4.66615
C          1.56451        0.82761       -4.65027
H         -0.60443        4.45643       -2.78273
H         -1.67879        3.07270       -1.04587
H          1.88422       -3.17797       -0.83454
H          0.92032       -4.62883       -2.57297
H          0.90466        3.40690       -4.41395
H         -0.51521       -3.65151       -4.31630
C         -3.76901       -3.34788       -1.90694
C         -2.80691       -3.49569       -0.91607
C         -2.14724       -2.35478       -0.47778
C         -2.42648       -1.13319       -1.03740
C         -3.36197       -1.00691       -2.03518
C         -4.06265       -2.11978       -2.48647
H         -4.31996       -4.21411       -2.22353
H         -1.41431       -2.40778        0.30823
H         -3.54193       -0.03117       -2.45342
C         -4.43532        2.96145        1.90943
C         -3.06994        3.10474        2.12049
C         -2.21236        2.30440        1.37659
C         -2.70998        1.37059        0.50093
C         -4.06408        1.22307        0.32918
C         -4.95776        2.02547        1.02637
H         -5.11374        3.59582        2.44915
H         -1.14614        2.39030        1.49131
H         -4.42017        0.47022       -0.35007
C          4.38418       -2.75363        2.52000
C          3.06229       -3.16028        2.37885
C          2.25651       -2.45686        1.49375
C          2.75247       -1.38443        0.79500
C          4.05763       -0.99111        0.95440
C          4.90212       -1.66687        1.82477
H          5.02300       -3.29066        3.19406
H          1.22382       -2.73405        1.36478
H          4.41762       -0.13919        0.40468
C          3.79581        3.45673       -1.21474
C          2.73620        3.46868       -0.31561
C          2.07614        2.27129       -0.07566
C          2.45911        1.12036       -0.71830
C          3.50826        1.12409       -1.60482
C          4.20868        2.29702       -1.86198
H          4.32371        4.37156       -1.40225
H          1.27202        2.22966        0.63912
H          3.79849        0.19961       -2.07554
Pd        -0.06118       -0.14366        1.28887
C         -1.32530       -4.83978        0.64938
C         -2.52799       -4.87872       -0.31296
C         -2.21093       -5.87927       -1.44052
C         -3.76925       -5.34785        0.46559
H         -1.10610       -5.83447        1.03717
H         -0.43431       -4.47659        0.13823
H         -1.52406       -4.19163        1.50249
H         -3.05760       -6.00296       -2.11435
H         -1.36131       -5.53715       -2.03023
H         -1.96575       -6.86008       -1.03345
H         -4.01226       -4.64393        1.26136
H         -4.63729       -5.42573       -0.18830
H         -3.60056       -6.32499        0.91782
C         -4.95622       -3.04735       -4.65397
C         -5.18258       -2.01493       -3.53226
C         -5.23591       -0.61168       -4.16795
C         -6.53083       -2.29430       -2.84412
H         -3.99054       -2.89684       -5.13428
H         -4.98385       -4.06644       -4.27093
H         -5.72733       -2.96314       -5.41961
H         -4.28783       -0.35840       -4.64136
H         -6.01137       -0.56283       -4.93227
H         -5.46344        0.15026       -3.42305
H         -6.55023       -3.29339       -2.40977
H         -6.70986       -1.57875       -2.04230
H         -7.35491       -2.22016       -3.55346
C         -1.05667        3.89014        3.45800
C         -2.54472        4.13076        3.13488
C         -3.33654        4.01871        4.45278
C         -2.70833        5.54221        2.54719
H         -0.43363        4.05616        2.58184
H         -0.71218        4.57195        4.23530
H         -0.89303        2.87152        3.80984
H         -4.38596        4.27455        4.31484
H         -3.28511        3.00338        4.84551
H         -2.93205        4.69276        5.20770
H         -2.15490        5.63702        1.61304
H         -3.75566        5.75877        2.33814
H         -2.33832        6.29923        3.23841
C         -7.04946        3.23379        0.35190
C         -6.47793        1.89586        0.85551
C         -7.11176        1.53558        2.21164
C         -6.84311        0.79577       -0.16065
H         -8.12681        3.16591        0.20170
H         -6.86229        4.03753        1.06300
H         -6.59310        3.51374       -0.59743
H         -8.19081        1.41414        2.11830
H         -6.69807        0.60211        2.59274
H         -6.92653        2.31085        2.95413
H         -6.47024       -0.17576        0.16327
H         -7.92428        0.71379       -0.27132
H         -6.42720        1.01697       -1.14329
C          1.17976       -3.88511        3.87388
C          2.46775       -4.34105        3.15917
C          3.44653       -4.87330        4.22354
C          2.14302       -5.47797        2.17491
H          0.41614       -3.57191        3.16368
H          0.76015       -4.69170        4.47461
H          1.38474       -3.04258        4.53394
H          2.99378       -5.68467        4.79336
H          4.35468       -5.26334        3.76458
H          3.72306       -4.08813        4.92702
H          1.69678       -6.32778        2.69109
H          1.44498       -5.14486        1.40878
H          3.04676       -5.82263        1.67269
C          6.37327        0.30807        2.31935
C          6.35517       -1.19569        1.98024
C          7.10359       -1.43758        0.65797
C          7.08406       -1.95359        3.10655
H          5.94025        0.90470        1.51751
H          5.80281        0.50379        3.22704
H          7.39255        0.65958        2.47821
H          6.63041       -0.90066       -0.16264
H          8.13857       -1.10307        0.72660
H          7.10586       -2.49757        0.40466
H          6.57001       -1.82653        4.05916
H          7.14901       -3.01902        2.88702
H          8.10157       -1.58182        3.22685
C          0.84453        5.05379        0.12766
C          2.31177        4.72581        0.45642
C          3.17617        5.94638        0.08676
C          2.46454        4.46038        1.96633
H          0.18976        4.21517        0.35749
H          0.49900        5.91695        0.69623
H          0.73257        5.28215       -0.93146
H          3.09246        6.17939       -0.97462
H          2.85776        6.82747        0.64384
H          4.22576        5.76987        0.32125
H          2.15755        5.32838        2.54945
H          1.86057        3.61193        2.28451
H          3.50215        4.23688        2.21339
C          5.00194        1.84911       -4.20292
C          5.43513        2.26492       -2.78743
C          6.45438        1.24802       -2.24043
C          6.12325        3.64131       -2.87384
H          4.54181        0.86190       -4.19970
H          4.28245        2.56057       -4.60692
H          5.85666        1.81569       -4.87836
H          7.35461        1.22823       -2.85442
H          6.74573        1.50514       -1.22217
H          6.03934        0.24110       -2.22859
H          6.46038        3.97361       -1.89211
H          6.99684        3.59617       -3.52410
H          5.44841        4.39316       -3.28260
H         -2.15240       -1.66420       -4.69570
H          2.26768        1.55955       -5.04786
H         -0.74498       -1.19956       -5.64831
H         -1.45202       -0.06433       -4.49393
H          0.99143        0.43358       -5.49008
H          2.14123        0.00719       -4.22066
