105
-153.06783824
Cl        -2.64736        2.95001        0.44198
Pd        -0.76581        1.76264        0.79413
P          1.36682        0.78522        1.08663
N          1.83525       -0.85011        0.70447
C          1.16817       -1.94124        1.25035
C          0.83636       -3.01868        0.38823
C          0.02177       -4.06409        0.85482
C         -0.44066       -5.11434       -0.12425
C         -1.05121       -6.36005        0.53758
C         -2.02076       -5.96570        1.65735
C         -1.30352       -5.13942        2.73725
C         -0.42482       -4.04790        2.17992
C         -0.07330       -2.98776        3.01261
C          0.70048       -1.94915        2.56125
H          0.94356       -1.12305        3.20356
H         -0.42943       -2.98553        4.02894
H         -2.03636       -4.69183        3.42085
H         -2.84191       -5.37390        1.23338
H         -1.55388       -6.99237       -0.20782
H         -1.17685       -4.65645       -0.79593
C          1.09210       -2.79453       -1.05986
C          0.24978       -1.84906       -1.69429
C          0.55482       -1.42290       -2.98095
C          1.66181       -1.91465       -3.62583
C          2.51236       -2.83432       -3.01552
C          3.71534       -3.32244       -3.78395
C          4.79382       -3.97850       -2.90526
C          4.16592       -4.92835       -1.87882
C          3.18245       -4.17613       -0.96858
C          2.23647       -3.27200       -1.71685
H          2.60313       -4.88497       -0.36449
H          4.94298       -5.43067       -1.28554
H          5.35694       -3.19807       -2.37806
H          4.14350       -2.48056       -4.34299
H          1.88826       -1.58250       -4.62490
H         -0.08473       -0.70531       -3.45966
N         -0.83216       -1.36443       -0.96428
P         -1.52798        0.22720       -0.80069
C         -3.14749       -0.10241       -0.10045
C         -4.29345        0.35501       -0.70529
C         -5.52350        0.09714       -0.12882
C         -5.61281       -0.62517        1.05368
C         -4.44268       -1.06781        1.65571
C         -3.21257       -0.80717        1.07927
H         -2.30372       -1.14628        1.55185
H         -4.49980       -1.61420        2.58166
C         -6.93534       -0.87836        1.68944
H         -6.42406        0.46147       -0.59291
H         -4.22198        0.92276       -1.61855
C         -1.68111        1.02006       -2.39665
C         -1.20139        2.29204       -2.60277
C         -1.29937        2.86855       -3.85543
C         -1.87750        2.17445       -4.90947
C         -2.37464        0.89919       -4.67636
C         -2.27498        0.32346       -3.42221
H         -2.64830       -0.67234       -3.23856
H         -2.83907        0.35862       -5.48333
C         -2.00098        2.80396       -6.25324
H         -0.92502        3.86427       -4.02148
H         -0.74857        2.83155       -1.78670
H         -0.93377       -1.73933       -0.03244
H          1.99075       -0.87931       -0.29281
C          2.03491        1.19585        2.69668
C          1.21171        1.33414        3.78904
C          1.75678        1.61309        5.02888
C          3.13035        1.74035        5.18507
C          3.94504        1.59235        4.07067
C          3.39794        1.31278        2.83090
H          4.02889        1.17671        1.96619
H          5.01113        1.69593        4.17947
C          3.71474        2.06963        6.51461
H          1.11532        1.73813        5.88446
H          0.14444        1.23558        3.66728
C          2.00752        1.82754       -0.22972
C          1.72391        1.42623       -1.51454
C          2.13133        2.19869       -2.58539
C          2.81157        3.38969       -2.37238
C          3.08778        3.77861       -1.06750
C          2.68141        3.00234        0.00241
H          2.86849        3.31697        1.01587
H          3.61761        4.69967       -0.89426
C          3.25967        4.22038       -3.52401
H          1.90997        1.88689       -3.59182
H          1.15108        0.52750       -1.67028
Cl        -0.00549        3.46883        2.05746
H         -0.68716       -5.79943        3.35918
H         -0.24802       -6.97997        0.95523
H         -2.49418       -6.85606        2.09488
H          0.39972       -5.39952       -0.76875
H          3.63289       -5.73013       -2.40500
H          3.73965       -3.56845       -0.24547
H          3.37533       -4.03565       -4.54429
H          5.53297       -4.50767       -3.52325
H         -7.19908       -0.06716        2.36934
H         -7.72364       -0.95909        0.93970
H         -6.92625       -1.80743        2.26111
H         -1.99504        2.05145       -7.04303
H         -2.93127        3.36802       -6.33239
H         -1.17415        3.48968       -6.44380
H          3.11225        1.65362        7.32331
H          4.72352        1.66612        6.61263
H          3.76886        3.14983        6.65646
H          4.25812        3.92524       -3.84941
H          2.58291        4.11293       -4.37298
H          3.29046        5.27793       -3.25812
