59
-75.80785599
Cl         1.59001        0.57461        2.33498
P          1.57636        0.06789       -0.84507
P         -1.65041       -0.09903       -0.77481
C          0.56548        0.19698       -2.38334
H          0.28821        1.24181       -2.53676
H          1.18455       -0.10617       -3.23315
C         -0.66033       -0.66041       -2.23260
H         -0.38007       -1.70387       -2.06726
H         -1.30154       -0.62831       -3.11897
C          2.58843       -1.48257       -0.86483
H          2.62230       -1.81837       -1.90853
C          2.92972        1.32371       -0.65516
H          2.84354        1.70474        0.36985
C         -3.03833       -1.26946       -0.41057
H         -3.38560       -1.02325        0.60056
C         -2.69325        1.35571       -1.26554
H         -2.20023        1.83170       -2.12178
C          3.97674       -0.99903       -0.41434
H          4.05151       -1.10625        0.67668
H          4.76429       -1.64517       -0.83133
C          4.21222        0.48470       -0.80419
H          4.55019        0.53858       -1.84829
H          5.02727        0.92243       -0.20791
C         -4.08074       -0.82504       -1.44961
H         -3.86905       -1.34519       -2.39521
H         -5.08715       -1.15829       -1.15146
C         -4.04401        0.71490       -1.67630
H         -4.84581        1.18373       -1.08926
H         -4.27990        0.95460       -2.72373
C          1.98077       -2.56560        0.01589
H          0.95060       -2.75333       -0.31309
H          1.89600       -2.18251        1.04154
C          2.83379        2.47777       -1.64816
H          3.78897        3.02132       -1.65646
H          2.72763        2.06672       -2.66051
C         -2.65420       -2.74353       -0.48149
H         -3.56927       -3.34996       -0.53096
H         -2.13456       -2.93397       -1.42862
C         -2.84224        2.35037       -0.11474
H         -3.69609        3.01093       -0.32202
H         -3.11986        1.79494        0.79121
C          2.77290       -3.86424        0.00172
H          2.30998       -4.63267        0.62512
H          3.78937       -3.71367        0.36955
H          2.85276       -4.26575       -1.01027
C          1.69920        3.43994       -1.33809
H          0.73677        2.93032       -1.34551
H          1.64332        4.25710       -2.06093
H          1.81753        3.88385       -0.34772
C         -1.80501       -3.18909        0.69861
H         -1.49389       -4.23269        0.61298
H         -2.35033       -3.08366        1.63844
H         -0.90489       -2.58225        0.79036
C         -1.60404        3.19412        0.14090
H         -1.34604        3.78928       -0.73692
H         -1.74632        3.88605        0.97415
H         -0.74010        2.57557        0.38144
Cl        -1.59374        0.05627        2.42591
Pd        -0.00589        0.07574        0.83773
