72
-98.10188272
Fe         0.00331        2.77550        0.02019
P          1.84151       -0.05906        0.04713
P         -1.87692       -0.06553        0.04824
C          1.40146        1.57007        0.75586
C          0.38361        1.79879        1.76829
C          0.32556        3.22639        2.02441
C          1.32259        3.86902        1.18702
C          2.03119        2.84256        0.44196
C         -1.43985        1.57347       -0.65676
C         -2.02983        2.85057       -0.28429
C         -1.35186        3.88224       -1.05124
C         -0.42062        3.24305       -1.96328
C         -0.47799        1.81356       -1.71893
C          3.25380       -0.77372        1.00787
C          4.47119       -0.24257        0.23281
C          2.69580        0.14416       -1.58939
C          4.18083       -0.15108       -1.28826
C         -3.19203       -0.80768       -1.03023
C         -4.42337        0.01130       -0.60585
C         -2.97250        0.21605        1.52810
C         -4.36974        0.42538        0.89567
H         -0.25055        1.03556        2.21946
H         -0.34883        3.72645        2.72296
H          1.54278        4.93862        1.16478
H          2.85116        2.99704       -0.26207
H         -2.79894        3.00845        0.47402
H          0.07723        1.04970       -2.26084
Cl         1.52148       -3.09544       -0.33088
Cl        -1.58160       -3.05326        0.44740
Pd        -0.00345       -1.48354        0.06752
H          3.18463       -1.86357        0.91139
C          3.24559       -0.37529        2.47910
H          2.55284        1.19157       -1.88050
C          2.11274       -0.78573       -2.64806
H          5.35420       -0.87005        0.43021
H          4.72559        0.75421        0.62038
H          4.82677        0.60133       -1.76458
H          4.45181       -1.10531       -1.75988
H         -1.55781        4.95387       -0.99831
H          0.21005        3.74546       -2.69990
H          4.20383       -0.66269        2.93387
H          2.30548       -1.82447       -2.34904
H         -3.30888       -1.85398       -0.72507
C         -2.88461       -0.72605       -2.52331
H         -2.61678        1.12829        2.02182
C         -2.97130       -0.94638        2.51940
H         -5.34838       -0.54231       -0.83013
H         -4.46620        0.91218       -1.23561
H         -4.69371        1.46991        1.01503
H         -5.10408       -0.16346        1.46321
H         -3.81658       -0.87437       -3.08643
H         -3.22057       -1.86703        1.97611
C          2.09626       -0.99335        3.25450
H          2.12495       -2.08349        3.20501
H          2.10840       -0.70818        4.30890
H          1.13968       -0.67844        2.84112
C          2.66453       -0.52357       -4.04119
H          3.74797       -0.65126       -4.07105
H          2.23425       -1.19764       -4.78538
H          2.45255        0.49822       -4.36183
C         -1.84541       -1.73594       -2.98130
H         -0.90292       -1.60054       -2.45398
H         -2.17426       -2.75795       -2.78388
H         -1.63700       -1.65661       -4.05065
C         -1.66867       -1.12221        3.27867
H         -1.72520       -1.93734        4.00379
H         -0.85030       -1.35580        2.60003
H         -1.40012       -0.21626        3.82500
H          3.20885        0.71977        2.54945
H          1.02115       -0.69549       -2.65610
H         -2.56317        0.29532       -2.76421
H         -3.79369       -0.80330        3.23426
