171
-217.84370076
P         -1.62824        0.32990       -0.49376
P          1.62701       -0.36318       -0.20691
C         -0.81647        1.30860       -1.76158
C          1.06041       -1.34323       -1.59944
C          0.07888        0.71205       -2.64261
C          0.76129        1.52623       -3.56744
C          0.49765        2.88540       -3.59779
C         -0.41620        3.45209       -2.73507
C         -1.06740        2.65809       -1.81193
C          1.33018       -2.69030       -1.60140
C          0.84918       -3.49418       -2.61552
C          0.08075       -2.93993       -3.61696
C         -0.20330       -1.58413       -3.63243
C          0.31398       -0.75872       -2.61607
Cl         1.25096        0.26185        2.99049
Cl        -1.89729       -0.49988        2.63114
C         -1.03154       -1.02066       -4.73260
C          1.75562        0.95618       -4.51784
H         -0.61927        4.50966       -2.77804
H         -1.77954        3.09392       -1.13041
H          1.92199       -3.11650       -0.80790
H          1.06889       -4.54933       -2.61924
H          1.01927        3.50204       -4.31029
H         -0.30806       -3.56416       -4.40377
C         -3.77295       -3.30890       -2.10464
C         -2.77901       -3.48142       -1.14908
C         -2.13116       -2.34852       -0.67358
C         -2.46010       -1.10745       -1.15777
C         -3.43742       -0.95318       -2.11001
C         -4.12373       -2.05785       -2.59975
H         -4.29370       -4.17851       -2.45843
H         -1.36673       -2.42271        0.08044
H         -3.67532        0.03788       -2.45943
C         -4.44504        2.74611        2.11727
C         -3.10934        3.12097        2.04258
C         -2.28090        2.39545        1.19685
C         -2.76794        1.32979        0.48075
C         -4.08640        0.96091        0.58357
C         -4.95617        1.66948        1.40335
H         -5.10856        3.29334        2.75987
H         -1.23739        2.64584        1.11161
H         -4.42526        0.09918        0.03678
C          4.33234       -2.73820        2.55873
C          3.00597       -3.13313        2.42143
C          2.19953       -2.41499        1.54861
C          2.69897       -1.33701        0.86167
C          4.00674       -0.95321        1.01988
C          4.85434       -1.64920        1.86987
H          4.97162       -3.28686        3.22301
H          1.16628       -2.68813        1.41559
H          4.36898       -0.09317        0.48431
C          3.90127        3.40662       -1.22203
C          2.84844        3.48154       -0.31781
C          2.13884        2.31835       -0.05116
C          2.47370        1.14178       -0.67261
C          3.51724        1.08147       -1.56318
C          4.25835        2.22120       -1.85357
H          4.47824        4.28809       -1.42888
H          1.33608        2.32107        0.66657
H          3.75993        0.13159       -2.00872
Pd        -0.15167       -0.09848        1.27418
C         -1.25366       -4.86373        0.34292
C         -2.45642       -4.88554       -0.62015
C         -2.11566       -5.81569       -1.79954
C         -3.68067       -5.43136        0.13581
H         -1.01469       -5.87002        0.68655
H         -0.36945       -4.46173       -0.15025
H         -1.46466       -4.25752        1.22360
H         -1.84163       -6.80935       -1.44549
H         -2.96118       -5.92705       -2.47700
H         -1.27843       -5.41928       -2.37258
H         -3.48078       -6.42452        0.53765
H         -3.94225       -4.77645        0.96679
H         -4.54838       -5.50302       -0.51915
C         -4.72021       -1.16490       -4.87582
C         -5.26154       -1.85964       -3.61354
C         -6.35569       -0.98476       -2.97581
C         -5.89339       -3.20127       -4.03264
H         -4.26298       -0.20554       -4.63688
H         -3.97125       -1.78587       -5.36505
H         -5.52074       -0.98247       -5.59259
H         -6.74157       -1.45310       -2.07066
H         -5.96846       -0.00182       -2.71004
H         -7.18979       -0.83968       -3.66213
H         -5.15433       -3.85511       -4.49543
H         -6.32482       -3.71730       -3.17510
H         -6.69247       -3.04241       -4.75671
C         -2.35116        5.49613        1.88141
C         -2.54200        4.30628        2.83659
C         -1.18715        3.91668        3.46251
C         -3.48852        4.72786        3.97782
H         -3.30653        5.81016        1.46134
H         -1.91139        6.34841        2.39910
H         -1.69806        5.22896        1.05221
H         -0.43753        3.71189        2.70084
H         -0.80238        4.71953        4.09101
H         -1.29039        3.02413        4.07926
H         -4.43234        5.11004        3.59016
H         -3.70060        3.88670        4.63765
H         -3.04066        5.51891        4.57920
C         -6.80613        0.08879        0.66147
C         -6.42828        1.26950        1.57603
C         -7.33112        2.46544        1.22049
C         -6.66727        0.85156        3.03820
H         -7.85608       -0.17665        0.78417
H         -6.65024        0.34652       -0.38511
H         -6.21362       -0.79595        0.89376
H         -7.14804        3.31266        1.88013
H         -7.15027        2.79255        0.19671
H         -8.38410        2.19821        1.30822
H         -6.01943        0.01819        3.30950
H         -6.45875        1.67279        3.72294
H         -7.70065        0.54148        3.19227
C          1.12487       -3.87048        3.91259
C          2.40848       -4.32189        3.18716
C          3.38876       -4.87408        4.23985
C          2.07377       -5.44248        2.18768
H          0.35906       -3.54716        3.20907
H          0.70546       -4.68293        4.50553
H          1.33512       -3.03649        4.58177
H          2.93396       -5.69069        4.80049
H          4.29271       -5.26283        3.77159
H          3.67275       -4.10015        4.95274
H          2.97265       -5.78087        1.67265
H          1.62972       -6.29947        2.69379
H          1.36993       -5.09535        1.43308
C          6.32173        0.27438        2.52470
C          6.30869       -1.18070        2.01842
C          7.00687       -1.25686        0.64777
C          7.09123       -2.05385        3.01751
H          7.34235        0.63003        2.66457
H          5.82990        0.94446        1.82038
H          5.80166        0.35372        3.47908
H          6.99275       -2.27699        0.26462
H          6.51217       -0.61905       -0.08370
H          8.04618       -0.93696        0.72032
H          8.11959       -1.70532        3.11250
H          6.63811       -2.01793        4.00804
H          7.12451       -3.09245        2.68896
C          1.02551        5.15406        0.05706
C          2.47212        4.77536        0.41637
C          3.39446        5.94610        0.02656
C          2.58967        4.54622        1.93525
H          0.33638        4.35100        0.31203
H          0.71196        6.05184        0.58937
H          0.93359        5.34521       -1.01151
H          4.43248        5.72805        0.27709
H          3.33219        6.15589       -1.04112
H          3.11066        6.85445        0.55796
H          3.60937        4.27169        2.20446
H          2.32436        5.44706        2.48823
H          1.93239        3.74457        2.26856
C          5.66951        0.80425       -3.42941
C          5.48726        2.18716       -2.77345
C          6.74304        2.49906       -1.93844
C          5.33294        3.23998       -3.88727
H          5.83419        0.03162       -2.67873
H          4.79622        0.53028       -4.02020
H          6.53243        0.80308       -4.09521
H          7.64075        2.46647       -2.55556
H          6.68169        3.48960       -1.48895
H          6.85999        1.77428       -1.13300
H          5.27125        4.24724       -3.47751
H          6.18279        3.21200       -4.56906
H          4.42967        3.06071       -4.46886
H         -1.75565       -1.75471       -5.08683
H          2.64868        1.57964       -4.56190
H         -0.41047       -0.73055       -5.58077
H         -1.58454       -0.14104       -4.39998
H          1.34213        0.89549       -5.52542
H          2.06791       -0.04517       -4.21860
