87
-129.18453040
P         -1.51483       -0.26397       -0.36982
P          1.66537        0.35852        0.09533
C         -1.17557        0.98565       -1.61602
C          1.52744       -0.71185       -1.35946
C         -0.12479        0.79106       -2.50307
C          0.14170        1.78260       -3.46878
C         -0.66166        2.91006       -3.51640
C         -1.70484        3.07967       -2.63052
C         -1.95833        2.11230       -1.67847
C          2.24926       -1.88093       -1.30268
C          2.14702       -2.82141       -2.30846
C          1.29913       -2.59297       -3.36929
C          0.55278       -1.43016       -3.44676
C          0.67918       -0.45743       -2.43572
Cl         1.20040        0.05810        3.25587
Cl        -1.56627       -1.68910        2.52913
H         -2.31686        3.96547       -2.67712
H         -2.77413        2.23445       -0.98586
H          2.89537       -2.06498       -0.46046
H          2.71641       -3.73490       -2.25571
H         -0.45597        3.66556       -4.25561
H          1.20043       -3.33002       -4.14818
C         -2.22725       -4.27957       -2.36839
C         -1.32533       -4.19734       -1.31634
C         -1.14180       -2.96810       -0.69538
C         -1.82101       -1.85608       -1.13523
C         -2.70579       -1.94260       -2.18426
C         -2.91447       -3.16231       -2.80104
H         -2.38658       -5.22998       -2.84854
C         -0.59069       -5.39963       -0.83809
H         -0.45691       -2.88314        0.13132
H         -3.21897       -1.05525       -2.52059
H         -3.60775       -3.23856       -3.62258
C         -5.11646        1.03650        2.10471
C         -5.18488       -0.11882        1.35129
C         -4.09732       -0.51554        0.59649
C         -2.95315        0.24689        0.59574
C         -2.88209        1.39592        1.34917
C         -3.96157        1.80631        2.12077
H         -5.96336        1.34832        2.69189
H         -6.08378       -0.71329        1.35415
H         -4.13316       -1.42112        0.01363
H         -1.98153        1.98528        1.33717
C         -3.88070        3.06006        2.91850
C          5.69121       -0.36347        2.10214
C          5.49633        0.76263        1.32725
C          4.27011        0.98419        0.72894
C          3.24941        0.07929        0.90685
C          3.44314       -1.04418        1.67724
C          4.66526       -1.27798        2.29562
H          6.64602       -0.53954        2.56756
H          6.29862        1.46878        1.18880
H          4.10385        1.86076        0.12452
H          2.63228       -1.73948        1.81982
C          4.86871       -2.49944        3.12116
C          0.93421        4.79595       -0.56456
C          1.78105        4.11215       -1.41495
C          2.02055        2.76545       -1.21472
C          1.40891        2.11632       -0.16854
C          0.59411        2.80322        0.70211
C          0.33705        4.15516        0.51230
H          0.73214        5.84047       -0.73002
H          2.24395        4.62363       -2.24286
H          2.66337        2.21143       -1.88007
H          0.17865        2.29320        1.55418
C         -0.59258        4.88275        1.41817
Pd        -0.07248       -0.39862        1.47237
C          1.27084        1.65062       -4.43074
C         -0.37817       -1.24583       -4.59516
H          0.90294        1.43853       -5.43536
H          1.85289        2.57228       -4.47516
H          1.94986        0.84711       -4.14330
H         -0.93553       -2.16248       -4.79321
H         -1.10587       -0.45786       -4.39868
H          0.16867       -0.98376       -5.50164
H         -1.13460       -5.88910       -0.02908
H         -0.45470       -6.12479       -1.64168
H          0.39845       -5.13055       -0.46431
H         -2.89968        3.16246        3.38484
H         -4.04662        3.93339        2.28613
H         -4.62759        3.07274        3.71343
H          5.68466       -2.36489        3.83256
H          3.96951       -2.73905        3.69070
H          5.10793       -3.35757        2.49153
H         -0.32135        5.93633        1.49799
H         -1.61691        4.82511        1.04713
H         -0.57396        4.45863        2.42315
