87
-129.18434296
P         -1.68161       -0.37121       -0.12462
P          1.56254        0.33023       -0.19483
C         -1.43357        0.96217       -1.32160
C          1.32254       -0.66162       -1.67274
C         -0.48750        0.91451       -2.34380
C         -0.28547        2.06133       -3.13621
C         -1.05174        3.19068       -2.90647
C         -1.99453        3.21565       -1.90276
C         -2.17426        2.10075       -1.10825
C          2.11791       -1.76047       -1.88670
C          1.93889       -2.53582       -3.01510
C          0.95801       -2.20197       -3.92505
C          0.14403       -1.09877       -3.72750
C          0.33295       -0.30333       -2.57949
Cl         1.22567        1.23551        2.94642
Cl        -1.38889       -0.72269        3.08552
H         -2.57923        4.10418       -1.72924
H         -2.89625        2.12192       -0.30881
H          2.88536       -2.01059       -1.17341
H          2.56028       -3.40056       -3.18084
H         -0.89481        4.06196       -3.51958
H          0.81085       -2.80749       -4.80324
C         -0.92257       -4.58582       -1.64480
C         -0.36833       -4.18242       -0.43771
C         -0.63501       -2.89636        0.01467
C         -1.41731       -2.04119       -0.72719
C         -1.98503       -2.45766       -1.90794
C         -1.73609       -3.73679       -2.36971
H         -0.71227       -5.57556       -2.01276
C          0.53071       -5.08287        0.33381
H         -0.24815       -2.57212        0.96530
H         -2.60076       -1.77443       -2.47104
H         -2.16549       -4.06531       -3.30192
C         -5.78343        0.01101        1.81586
C         -5.56022       -0.95769        0.85746
C         -4.31344       -1.07425        0.27206
C         -3.29975       -0.22477        0.64998
C         -3.52121        0.74225        1.60337
C         -4.76955        0.87833        2.19831
H         -6.75081        0.09732        2.28065
H         -6.35535       -1.62537        0.56859
H         -4.12394       -1.82947       -0.47306
H         -2.71232        1.38572        1.90839
C         -4.99028        1.89900        3.25850
C          4.94096       -1.41787        2.31642
C          5.04912       -0.13257        1.82280
C          4.02977        0.40043        1.05664
C          2.91393       -0.35585        0.78570
C          2.80235       -1.63465        1.28128
C          3.81304       -2.18488        2.05881
H          5.73499       -1.83521        2.91186
H          5.92562        0.45660        2.03738
H          4.09604        1.40587        0.67457
H          1.92332       -2.21617        1.06228
C          3.68829       -3.57540        2.57442
C          2.35680        4.65466       -1.32650
C          3.09500        3.64307       -1.90921
C          2.86449        2.32743       -1.55187
C          1.90202        2.03910       -0.61317
C          1.17212        3.04408       -0.02282
C          1.39069        4.37138       -0.37077
H          2.52493        5.67872       -1.61336
H          3.84330        3.87683       -2.64865
H          3.41792        1.52225       -2.00934
H          0.42160        2.79869        0.70951
C          0.56830        5.45444        0.23293
Pd        -0.03458        0.07317        1.48698
C          0.74210        2.09269       -4.21433
C         -0.91257       -0.78326       -4.72842
H          1.29868        3.03069       -4.19244
H          1.46354        1.28253       -4.10369
H          0.27818        2.00110       -5.19709
H         -1.62165       -0.04926       -4.34405
H         -0.47416       -0.38206       -5.64299
H         -1.47727       -1.67853       -4.99259
H          0.46072       -4.88435        1.40430
H          0.27252       -6.13048        0.17319
H          1.56974       -4.94115        0.03264
H         -4.66637        1.52204        4.22957
H         -4.42880        2.81035        3.04761
H         -6.04448        2.16878        3.33534
H          2.68207       -3.76101        2.95330
H          3.89041       -4.30107        1.78525
H          4.38862       -3.76075        3.38997
H         -0.33389        5.62799       -0.35536
H          0.26334        5.19556        1.24794
H          1.12488        6.39132        0.28261
