105
-153.07088533
Cl        -1.07711        3.31978       -2.10142
Pd        -0.07474        1.84237       -0.73795
P          0.92289        0.51408        0.96366
N         -0.05814       -0.79674        1.60879
C         -0.17812       -2.17719        1.39866
C          0.15541       -2.83736        0.18585
C         -0.17278       -4.19965        0.02378
C         -0.04624       -4.84338       -1.33673
C          0.11898       -6.36737       -1.26382
C         -1.00760       -6.98068       -0.42575
C         -1.01927       -6.40182        1.00027
C         -0.71984       -4.92282        1.08721
C         -1.00326       -4.26483        2.27723
C         -0.76483       -2.92279        2.42005
H         -1.02279       -2.42141        3.33693
H         -1.43515       -4.82271        3.09094
H         -1.99074       -6.59088        1.47453
H         -1.97032       -6.77497       -0.91050
H          0.15128       -6.81078       -2.26910
H         -0.94731       -4.60028       -1.91271
C          0.65223       -2.06818       -0.97896
C         -0.24106       -1.16785       -1.60617
C          0.19014       -0.45963       -2.72667
C          1.45367       -0.64510       -3.22584
C          2.33881       -1.54534       -2.64154
C          3.69355       -1.72863       -3.28795
C          4.64795       -2.70019       -2.56630
C          3.88522       -3.83009       -1.86615
C          2.88336       -3.24160       -0.86456
C          1.93834       -2.26218       -1.51139
H          2.32724       -4.03670       -0.35500
H          4.57515       -4.52886       -1.37222
H          5.23368       -2.15065       -1.81974
H          4.16522       -0.74277       -3.38698
H          1.77303       -0.09054       -4.09188
H         -0.48335        0.24001       -3.18880
N         -1.52361       -0.99462       -1.08069
P         -2.07750        0.63542       -0.71372
C         -2.60564        0.77187        0.99206
C         -2.21838        1.86814        1.72666
C         -2.46904        1.90621        3.08516
C         -3.11303        0.85047        3.71455
C         -3.51378       -0.23830        2.95231
C         -3.26654       -0.27490        1.59177
H         -3.55550       -1.13137        1.00359
H         -4.00770       -1.06510        3.43373
C         -3.32708        0.86585        5.18796
H         -2.14444        2.75020        3.66972
H         -1.70062        2.68205        1.24450
C         -3.31856        1.22576       -1.85387
C         -3.48126        0.57140       -3.05075
C         -4.42048        1.02584       -3.95935
C         -5.19465        2.14286       -3.67354
C         -5.02051        2.78269       -2.45318
C         -4.08112        2.32638       -1.54606
H         -3.93334        2.82734       -0.60245
H         -5.62279        3.64382       -2.21911
C         -6.22025        2.62264       -4.64080
H         -4.55656        0.51507       -4.89723
H         -2.87650       -0.29569       -3.26328
H         -1.75622       -1.56366       -0.27935
H         -0.83646       -0.33299        2.06229
C          1.01155        1.71576        2.29961
C          1.34623        3.02720        2.06165
C          1.38560        3.93114        3.10556
C          1.10420        3.52440        4.40273
C          0.77860        2.19400        4.62833
C          0.73912        1.29305        3.57946
H          0.48820        0.25956        3.75415
H          0.54986        1.86897        5.62891
C          1.11157        4.50388        5.52427
H          1.63470        4.96164        2.91811
H          1.58011        3.33666        1.05731
C          2.60357       -0.08808        0.79551
C          3.49037        0.38657       -0.14040
C          4.79697       -0.06166       -0.14580
C          5.23265       -0.98133        0.79905
C          4.33219       -1.43291        1.75380
C          3.02114       -0.98798        1.74833
H          2.31554       -1.33725        2.48601
H          4.66161       -2.13913        2.49660
C          6.63880       -1.47123        0.80355
H          5.49088        0.31167       -0.87939
H          3.16616        1.13202       -0.84459
Cl         1.91288        2.82582       -1.08510
H         -0.28661       -6.93557        1.61746
H          1.08613       -6.60527       -0.80342
H         -0.92034       -8.07610       -0.40160
H          0.77888       -4.39522       -1.90053
H          3.34530       -4.42336       -2.61459
H          3.42853       -2.72393       -0.07110
H          3.53206       -2.07582       -4.31565
H          5.38790       -3.11035       -3.26777
H         -2.48585        0.40220        5.70512
H         -3.42958        1.88597        5.56056
H         -4.23210        0.32119        5.46034
H         -6.35418        3.70284       -4.56844
H         -5.93078        2.39398       -5.66741
H         -7.18454        2.14995       -4.44944
H          0.12466        4.94995        5.65478
H          1.39148        4.02479        6.46351
H          1.82343        5.30945        5.33900
H          7.18929       -1.11064       -0.06642
H          7.16496       -1.13112        1.69653
H          6.67034       -2.56169        0.78818
