64
-97.22214034
Cl        -1.37297       -0.31116       -2.83410
Cl         1.85633       -0.66704       -2.94388
P          1.93958       -0.63066        0.29624
C          2.13650       -2.37810        0.87577
C          3.73182       -0.14227        0.18182
P         -1.29011       -0.32792        0.35561
C          1.14968        0.43640        1.55862
C         -0.28996        0.59939        1.57565
C         -0.61718        1.60098        2.57870
C          0.62713        2.06116        3.17055
C          1.72134        1.33192        2.55289
H         -1.62191        1.92291        2.85925
H          0.72136        2.80339        3.96646
Pd         0.27738       -0.67626       -1.36080
H          2.78361        1.44397        2.77897
C         -5.18624        1.70064       -0.86935
C         -4.94041        0.38392       -1.20391
C         -3.75363       -0.21435       -0.81927
C         -2.81918        0.50320       -0.10782
C         -3.06642        1.81378        0.23144
C         -4.25017        2.41698       -0.15050
H         -6.10896        2.16960       -1.17005
H         -5.66857       -0.17677       -1.76667
H         -3.54600       -1.24053       -1.07867
H         -2.33142        2.36462        0.79105
H         -4.44019        3.44493        0.11160
C         -2.35013       -4.44729        1.94751
C         -1.99383       -4.29572        0.62152
C         -1.67739       -3.04132        0.13244
C         -1.71641       -1.95310        0.97330
C         -2.07787       -2.09531        2.29304
C         -2.39509       -3.34924        2.78447
H         -2.59650       -5.42462        2.32943
H         -1.96339       -5.15200       -0.03206
H         -1.40826       -2.90432       -0.90268
H         -2.10228       -1.22659        2.93210
H         -2.67512       -3.46777        3.81831
C          4.21697        0.00524       -1.24359
H          3.83519        0.80919        0.71981
C          4.44293       -1.28495        0.93350
H          4.55032       -1.02511        1.99682
C          3.65663       -2.61662        0.80542
H          5.46725       -1.40020        0.55006
C          1.57187       -2.53557        2.27120
H          1.59692       -3.01664        0.16297
H          3.95656       -3.32254        1.59336
H          3.91686       -3.10419       -0.14533
H          1.67647       -3.56074        2.63419
H          2.09256       -1.87934        2.97146
H          0.51349       -2.27263        2.30491
H          5.28210        0.24359       -1.28087
H          4.06728       -0.92418       -1.79519
H          3.68183        0.79191       -1.77689
Fe         0.63750        2.32810        1.13626
C         -0.09575        2.75922       -0.73256
C          1.30426        2.39210       -0.80156
C          2.06124        3.31958        0.01649
C          1.12799        4.26808        0.59897
C         -0.20708        3.90392        0.15427
H         -0.90576        2.26750       -1.27540
H          1.71182        1.60212       -1.43458
H          3.14651        3.32791        0.13985
H          1.38373        5.10422        1.25340
H         -1.12696        4.44383        0.39094
