171
-217.84327242
P         -1.56562        0.35087       -0.50835
P          1.61212       -0.33442       -0.29026
C         -0.81824        1.35124       -1.79533
C          1.05961       -1.27852       -1.71154
C          0.06257        0.78973       -2.71248
C          0.70069        1.63704       -3.63887
C          0.39802        2.98872       -3.64347
C         -0.50514        3.51863       -2.74708
C         -1.10336        2.69475       -1.81437
C          1.34746       -2.62121       -1.74324
C          0.89349       -3.40437       -2.78596
C          0.12957       -2.83517       -3.78221
C         -0.17371       -1.48370       -3.76681
C          0.32073       -0.67700       -2.72372
Cl         1.40723        0.41390        2.91241
Cl        -1.72116       -0.35161        2.78836
C         -1.00112       -0.91038       -4.86285
C          1.68072        1.10692       -4.62526
H         -0.73914        4.57045       -2.76946
H         -1.79795        3.10181       -1.09726
H          1.93075       -3.05928       -0.94927
H          1.13082       -4.45521       -2.81700
H          0.87991        3.62917       -4.36289
H         -0.24082       -3.44415       -4.58962
C         -3.71678       -3.38671       -1.87924
C         -2.74107       -3.48955       -0.89467
C         -2.07109       -2.33238       -0.52119
C         -2.36695       -1.13169       -1.11640
C         -3.32876       -1.04681       -2.09355
C         -4.03840       -2.17644       -2.48418
H         -4.24929       -4.27055       -2.17248
H         -1.32233       -2.36358        0.25200
H         -3.54142       -0.08780       -2.53596
C         -4.51182        2.73264        1.99901
C         -3.16238        3.05570        2.06544
C         -2.28191        2.34162        1.26246
C         -2.73870        1.33315        0.44910
C         -4.07507        1.02208        0.40593
C         -4.99222        1.71490        1.18422
H         -5.19967        3.28636        2.60979
H         -1.22625        2.54946        1.28629
H         -4.40533        0.22181       -0.23217
C          4.16605       -2.84711        2.50529
C          2.81340       -3.14097        2.38881
C          2.05784       -2.38645        1.50021
C          2.63406       -1.36585        0.78332
C          3.97010       -1.08307        0.92251
C          4.76627       -1.81827        1.78998
H          4.75951       -3.43435        3.18036
H          1.00561       -2.57579        1.37781
H          4.39474       -0.27231        0.35776
C          3.94904        3.43249       -1.20166
C          2.84357        3.50702       -0.36245
C          2.12420        2.34242       -0.13138
C          2.49908        1.16161       -0.72154
C          3.58987        1.10491       -1.55486
C          4.35063        2.24247       -1.79891
H          4.51950        4.32246       -1.38401
H          1.27237        2.35160        0.52720
H          3.86022        0.16134       -1.99891
Pd        -0.09247       -0.02109        1.28016
C         -0.94187       -5.18178       -0.48497
C         -2.40538       -4.81109       -0.18947
C         -3.30736       -5.96401       -0.67006
C         -2.60601       -4.63858        1.32842
H         -0.65549       -6.09608        0.03444
H         -0.79728       -5.34132       -1.55293
H         -0.26385       -4.38925       -0.17240
H         -3.06119       -6.88928       -0.14918
H         -4.35783       -5.74622       -0.47789
H         -3.18007       -6.14391       -1.73738
H         -3.63780       -4.36756        1.55089
H         -2.37671       -5.56160        1.86054
H         -1.96484       -3.85475        1.72868
C         -5.92572       -3.37817       -3.70478
C         -5.17234       -2.04719       -3.51401
C         -4.59073       -1.61758       -4.87093
C         -6.18060       -0.98847       -3.02916
H         -5.26353       -4.15391       -4.08872
H         -6.35626       -3.72270       -2.76464
H         -6.74143       -3.26142       -4.41824
H         -4.06105       -0.66914       -4.78939
H         -3.89435       -2.36777       -5.24396
H         -5.38028       -1.49602       -5.61237
H         -6.57254       -1.25145       -2.04689
H         -5.71641       -0.00599       -2.95676
H         -7.02198       -0.90636       -3.71701
C         -1.14975        4.28113        3.02540
C         -2.68428        4.14597        3.03486
C         -3.12429        3.78204        4.46544
C         -3.29927        5.49563        2.62479
H         -0.67224        3.34125        3.30230
H         -0.79204        4.57689        2.04069
H         -0.82235        5.04046        3.73536
H         -2.72289        2.81048        4.75330
H         -2.76832        4.52098        5.18305
H         -4.20920        3.73398        4.54867
H         -3.00641        5.75838        1.60833
H         -4.38756        5.46114        2.66110
H         -2.96750        6.29354        3.28894
C         -7.02437        1.71776       -0.27437
C         -6.47961        1.34064        1.11389
C         -7.30471        2.07849        2.18600
C         -6.63998       -0.17565        1.34159
H         -8.07665        1.45013       -0.36860
H         -6.93020        2.78969       -0.44721
H         -6.47457        1.20496       -1.06180
H         -8.34978        1.77117        2.14867
H         -6.93016        1.85983        3.18589
H         -7.27567        3.15707        2.03318
H         -7.69181       -0.46096        1.33953
H         -6.14082       -0.75291        0.56460
H         -6.21268       -0.46695        2.30085
C          2.47366       -3.95429        4.73795
C          2.19434       -4.24953        3.25206
C          2.81453       -5.60233        2.86115
C          0.66812       -4.33317        3.05988
H          2.07140       -2.98039        5.01649
H          2.01259       -4.70600        5.37832
H          3.54200       -3.94844        4.94971
H          2.38655       -6.41288        3.45078
H          2.63340       -5.81822        1.80825
H          3.89200       -5.60366        3.02241
H          0.18929       -3.38633        3.30956
H          0.41981       -4.58839        2.03126
H          0.23736       -5.10165        3.70151
C          6.41517        0.02628        2.22591
C          6.25731       -1.47657        1.92117
C          6.96577       -1.81592        0.59852
C          6.92719       -2.27189        3.05841
H          7.46413        0.28809        2.36331
H          6.02495        0.64247        1.41715
H          5.87847        0.29158        3.13650
H          6.52990       -1.26199       -0.23116
H          8.02646       -1.57032        0.64759
H          6.87367       -2.87832        0.37356
H          6.89569       -3.34335        2.86210
H          7.97471       -1.98928        3.16260
H          6.43539       -2.07952        4.01182
C          1.01549        5.20591       -0.17453
C          2.41144        4.80570        0.33257
C          3.38685        5.96307        0.04476
C          2.36892        4.57509        1.85553
H          0.29155        4.41127       -0.00111
H          0.65791        6.10492        0.32711
H          1.04122        5.40463       -1.24545
H          3.07207        6.87026        0.56046
H          4.39333        5.72124        0.38590
H          3.42655        6.18814       -1.02083
H          2.07150        5.48280        2.38021
H          1.66187        3.79060        2.12058
H          3.34914        4.27615        2.22609
C          5.23474        1.76905       -4.10320
C          5.61888        2.14252       -2.66202
C          6.54517        1.05792       -2.08059
C          6.39560        3.47342       -2.69290
H          4.69532        0.82310       -4.13402
H          4.60156        2.53899       -4.54264
H          6.12137        1.66795       -4.72895
H          6.79405        1.27963       -1.04305
H          6.07273        0.07732       -2.11375
H          7.47566        0.99543       -2.64458
H          5.79717        4.26834       -3.13748
H          6.68872        3.77920       -1.68866
H          7.30433        3.37656       -3.28693
H         -1.77279       -1.61487       -5.17259
H          1.20528        0.92243       -5.58911
H         -0.39058       -0.68662       -5.73821
H         -1.49680        0.00912       -4.54826
H          2.12719        0.17314       -4.28052
H          2.48762        1.82092       -4.78886
