72
-108.40450742
Cl         1.70892       -0.87353        2.72285
Cl        -0.93806        0.81913        2.78873
P         -1.10749        1.14477       -0.26196
P          2.24897       -0.11573       -0.38675
C          3.24220        1.48247       -0.14170
C          3.59350        1.63566        1.33989
C          4.51057        1.44382       -0.98637
C          3.32580       -1.66383       -0.13196
C          4.15423       -1.95018       -1.39083
C          1.44169       -0.41186       -2.06590
C          1.51602        0.75048       -3.03404
C         -1.13345       -0.17902       -1.50824
C          0.01948       -0.93964       -1.98904
C         -0.50193       -2.00831       -2.84456
C         -1.94477       -1.88403       -2.91469
C         -2.33139       -0.75959       -2.08517
C          2.38232        2.67291       -0.54148
H          2.70106        1.60737        1.96508
H          4.27040        0.86010        1.68752
H          5.19942        0.67584       -0.63848
H          5.03758        2.39771       -0.93020
C          4.26755       -1.52738        1.06022
H          3.54598       -2.35043       -2.20103
H          4.91930       -2.69946       -1.18071
H          2.04195       -1.22518       -2.48418
H          0.86507        1.55879       -2.70871
H          1.16790        0.45543       -4.02609
H          2.52893        1.13598       -3.14456
H          0.10675       -2.70196       -3.42797
H         -2.61891       -2.51467       -3.49801
Pd         0.51786        0.22372        1.17380
H         -3.34809       -0.41121       -1.89204
C          2.35587       -2.81068        0.11115
H          4.65942       -1.05792       -1.75573
H          3.73382       -1.22404        1.95847
H          4.74823       -2.48248        1.27694
H          5.06326       -0.81144        0.86244
H          1.84405       -2.68363        1.06383
H          1.60842       -2.86596       -0.68156
H          2.88192       -3.76681        0.14570
H          4.08757        2.59207        1.51863
H          4.28784        1.25140       -2.03486
H          2.89690        3.61152       -0.32865
H          2.14635        2.67321       -1.60242
H          1.45245        2.67451        0.02427
C         -2.78167        1.23531        0.42888
C         -3.22338        2.19907        1.30112
C         -4.55459        1.90652        1.59709
C         -4.87368        0.77472        0.88876
O         -3.79489        0.35271        0.16703
H         -2.64055        3.01255        1.70010
H         -5.20371        2.45854        2.25704
H         -5.83476        0.27553        0.89259
C         -0.72619        2.75996       -0.96451
C         -0.66639        3.91420       -0.22292
C         -0.35028        4.94969       -1.10345
C         -0.23053        4.38259       -2.34845
O         -0.45463        3.03715       -2.27651
H         -0.81395        3.99414        0.84191
H         -0.22406        5.99068       -0.85453
H          0.00885        4.91036       -3.26329
Fe        -1.29373       -2.10592       -0.95708
C         -2.99928       -2.80787       -0.03786
C         -2.19444       -2.01669        0.87198
C         -0.88939       -2.63577        0.96616
C         -0.87822       -3.81489        0.12063
C         -2.17764       -3.90410       -0.52020
H         -4.03749       -2.60755       -0.31183
H         -2.51405       -1.11751        1.40232
H         -0.09388       -2.30730        1.63760
H         -0.05586       -4.52483        0.00868
H         -2.49983       -4.69077       -1.20628
