58
-89.86912799
P          1.58487        0.29942        0.92492
C          2.96294        1.41623        0.64930
C          2.78630        2.76600        0.84964
C          3.83858        3.63635        0.62666
C          5.05896        3.14684        0.20431
C          5.23023        1.79130        0.00342
C          4.17631        0.92376        0.22657
H          4.29198       -0.13606        0.06696
H          1.82415        3.13419        1.16967
C          1.97490       -1.35664        0.33816
C          2.01999       -1.56073       -1.02255
C          2.28769       -2.81987       -1.52606
C          2.51595       -3.86929       -0.65883
C          2.48883       -3.65813        0.70561
C          2.22222       -2.39630        1.20541
H          2.22299       -2.22029        2.26828
H          1.84897       -0.72517       -1.68293
C          1.17423        0.34923        2.71386
C          0.02412       -0.55673        3.11538
C         -1.33784       -0.06558        2.65867
P         -1.63719       -0.20445        0.85088
C         -3.28976        0.42258        0.53527
C         -4.26617       -0.41643        0.04918
C         -5.53407        0.07647       -0.20103
C         -5.81318        1.40794        0.03659
C         -4.82933        2.24641        0.52265
C         -3.56214        1.75023        0.77271
H         -2.78030        2.39503        1.14240
H         -4.03109       -1.45174       -0.13757
C         -1.46382       -1.88559        0.23209
C         -1.38288       -2.96903        1.07691
C         -1.22062       -4.23807        0.55132
C         -1.15027       -4.41546       -0.81642
C         -1.25169       -3.32869       -1.66158
C         -1.41196       -2.06175       -1.13239
H         -1.50154       -1.19988       -1.77499
H         -1.46290       -2.82690        2.14175
Pd        -0.12167        0.89172       -0.52982
Cl         1.42604        1.68783       -1.94813
Cl        -1.83378        1.29441       -1.92674
H         -2.14437       -0.62692        3.13688
H         -1.48033        0.98170        2.93125
H          0.19948       -1.56515        2.72297
H          0.01855       -0.67015        4.21079
H          2.09492        0.08170        3.23830
H          0.95629        1.38743        2.97079
H          3.70333        4.69469        0.77785
H          6.18106        1.40962       -0.33049
H          2.31390       -2.98046       -2.59122
H          2.67499       -4.47631        1.38181
H         -6.30050       -0.57703       -0.58414
H         -5.04554        3.28663        0.70270
H         -1.14883       -5.08803        1.20989
H         -1.20242       -3.46504       -2.72932
H          5.87825        3.82451        0.02758
H          2.71955       -4.85380       -1.04736
H         -6.79980        1.79429       -0.16093
H         -1.01962       -5.40425       -1.22491
