72
-98.10364636
Fe        -0.00991        2.82980        0.01552
P          1.84728       -0.02492       -0.04958
P         -1.84071       -0.03689        0.04725
C          1.41021        1.58745        0.70541
C          0.39865        1.79906        1.72460
C          0.33977        3.21885        2.02266
C          1.32124        3.88957        1.19006
C          1.99078        2.88217        0.38435
C         -1.42727        1.58720       -0.69670
C         -2.03405        2.86809       -0.36959
C         -1.36320        3.89079       -1.15360
C         -0.37987        3.24197       -2.00059
C         -0.42262        1.81901       -1.71822
C          3.22132       -0.74868        0.97223
C          4.40705        0.11806        0.51625
C          2.88122        0.29962       -1.56397
C          4.30924        0.48324       -0.99354
C         -3.18833       -0.78704       -0.99124
C         -4.39148        0.06920       -0.56155
C         -2.90461        0.27122        1.54451
C         -4.32277        0.44603        0.94733
H         -0.19987        1.01794        2.19102
H         -0.31891        3.69472        2.75248
H          1.53450        4.96083        1.18533
H          2.78768        3.06245       -0.34005
H         -2.83131        3.03242        0.35771
H          0.18671        1.05041       -2.19077
Cl         1.60889       -3.04649       -0.28748
Cl        -1.56597       -3.06809        0.31772
Pd         0.00627       -1.48749       -0.00484
H          3.36842       -1.78328        0.64151
C          2.95811       -0.71014        2.47823
H          2.51282        1.22725       -2.01792
C          2.80738       -0.84597       -2.57208
H          5.36085       -0.38376        0.74237
H          4.41068        1.03716        1.12053
H          4.66331        1.51086       -1.16307
H          4.99963       -0.15217       -1.56545
H         -1.58753        4.95954       -1.13651
H          0.27470        3.73437       -2.72281
H          3.91965       -0.68598        3.00979
H          3.63140       -0.74386       -3.29212
H         -3.32831       -1.82002       -0.65221
C         -2.90038       -0.76120       -2.49414
H         -2.55146        1.19928        2.00966
C         -2.84226       -0.87751        2.54933
H         -5.33562       -0.44506       -0.79998
H         -4.39516        0.98391       -1.17251
H         -4.68324        1.47366        1.10254
H         -5.02142       -0.18727        1.51158
H         -3.85243       -0.71282       -3.04092
H         -3.03328       -1.81703        2.01442
C          2.13539       -1.89073        2.97027
H          1.89431       -1.81216        4.03274
H          1.19821       -1.97706        2.42303
H          2.66928       -2.83137        2.82224
C          1.48976       -0.92758       -3.32231
H          1.31030       -0.02578       -3.91077
H          1.46055       -1.77716       -4.00841
H          0.65474       -1.03860       -2.63314
C         -2.10330       -1.96638       -2.97019
H         -1.17899       -2.08130       -2.40614
H         -2.66780       -2.89052       -2.83208
H         -1.84078       -1.89600       -4.02814
C         -1.53216       -0.96249        3.31169
H         -0.69223       -1.07855        2.62951
H         -1.35428       -0.06004        3.89962
H         -1.51215       -1.81086        3.99960
H          2.46785        0.23897        2.72974
H          3.00313       -1.78728       -2.04197
H         -2.38085        0.17328       -2.74143
H         -3.67346       -0.77685        3.26126
