105
-153.07291259
Cl        -0.77953        2.07730       -2.84241
Pd         0.08563        1.49697       -0.84775
P          1.37179        0.71395        0.92588
N          0.72179       -0.57647        1.92520
C          0.06371       -1.77214        1.67260
C         -0.10776       -2.32591        0.37959
C         -0.88387       -3.49318        0.22264
C         -1.05109       -4.06864       -1.16455
C         -1.63992       -5.48770       -1.20385
C         -2.79708       -5.63217       -0.21128
C         -2.32104       -5.34323        1.22019
C         -1.46450       -4.10770        1.33410
C         -1.23875       -3.57691        2.59700
C         -0.49116       -2.44041        2.76365
H         -0.35259       -2.02740        3.74772
H         -1.67711       -4.06239        3.45253
H         -3.18169       -5.24085        1.89367
H         -3.59461       -4.92821       -0.47992
H         -1.96599       -5.74697       -2.22101
H         -1.68836       -3.38951       -1.74293
C          0.67866       -1.85117       -0.78457
C          0.02496       -1.24562       -1.89211
C          0.76011       -1.02832       -3.06078
C          2.07414       -1.40788       -3.15097
C          2.71410       -2.04251       -2.09365
C          4.12379       -2.53504       -2.28880
C          4.44731       -3.74851       -1.40662
C          4.10784       -3.44630        0.05584
C          2.62805       -3.05866        0.23153
C          2.01922       -2.26470       -0.90357
H          2.03001       -3.96791        0.36654
H          4.74491       -2.62631        0.40546
H          5.50075       -4.04408       -1.51374
H          4.81955       -1.71865       -2.06717
H          2.62122       -1.23200       -4.06163
H          0.27961       -0.54244       -3.89171
N         -1.31844       -0.85025       -1.85175
P         -1.86355        0.18215       -0.52749
C         -2.79055       -0.71126        0.71683
C         -3.61288       -1.73228        0.30537
C         -4.39006       -2.40378        1.23221
C         -4.34565       -2.05311        2.57484
C         -3.53098       -0.99800        2.96392
C         -2.75723       -0.32548        2.03559
H         -2.12039        0.48897        2.33701
H         -3.50274       -0.70943        4.00074
C         -5.18037       -2.77232        3.57604
H         -5.03432       -3.20665        0.91735
H         -3.64000       -1.99950       -0.73926
C         -2.99337        1.44818       -1.11787
C         -3.00386        2.68546       -0.51820
C         -3.87731        3.65844       -0.96849
C         -4.74509        3.39694       -2.02026
C         -4.73333        2.13412       -2.59717
C         -3.85813        1.16225       -2.14664
H         -3.85100        0.17990       -2.59086
H         -5.41354        1.91676       -3.40289
C         -5.69983        4.43736       -2.49288
H         -3.88800        4.63016       -0.50511
H         -2.32661        2.88878        0.29607
H         -1.64967       -0.38848       -2.68903
H          0.93784       -0.35116        2.88875
C          1.32715        2.18801        1.95408
C          0.10002        2.66377        2.35022
C          0.02069        3.80941        3.12102
C          1.17277        4.48285        3.50386
C          2.40233        3.99311        3.08405
C          2.47827        2.84797        2.31302
H          3.43196        2.47386        1.97936
H          3.30057        4.51886        3.35957
C          1.08859        5.73335        4.30794
H         -0.93922        4.19054        3.42514
H         -0.79215        2.14401        2.04231
C          3.09374        0.40133        0.53765
C          3.63241        0.76793       -0.67247
C          4.97873        0.57071       -0.91542
C          5.79884        0.01779        0.05860
C          5.23960       -0.33714        1.27861
C          3.89034       -0.14383        1.51672
H          3.45349       -0.41106        2.46607
H          5.86582       -0.77102        2.03938
C          7.24073       -0.23197       -0.21564
H          5.40188        0.85048       -1.86509
H          3.00223        1.22432       -1.41752
Cl         1.64070        3.12299       -0.95756
H         -1.75105       -6.19933        1.60041
H         -0.85607       -6.21348       -0.95317
H         -3.24962       -6.63154       -0.28066
H         -0.07789       -4.05566       -1.67124
H          4.36242       -4.30247        0.69619
H          2.49823       -2.48921        1.15971
H          4.28147       -2.77733       -3.34752
H          3.86034       -4.61147       -1.74558
H         -4.66045       -2.85673        4.53145
H         -6.11961       -2.24500        3.74831
H         -5.41795       -3.78240        3.23918
H         -6.64840        4.36407       -1.95921
H         -5.30022        5.43985       -2.33363
H         -5.90341        4.32874       -3.55909
H          0.21610        5.72269        4.96272
H          1.97185        5.85808        4.93592
H          1.01136        6.60622        3.65830
H          7.38929       -1.23321       -0.62266
H          7.63499        0.48611       -0.93600
H          7.83502       -0.14711        0.69521
