171
-217.84767882
P         -1.55060        0.33857       -0.39589
P          1.63454       -0.39577       -0.21683
C         -0.78457        1.31102       -1.69539
C          1.01434       -1.35912       -1.60435
C          0.04667        0.70686       -2.63120
C          0.68175        1.51452       -3.59419
C          0.43577        2.87762       -3.60230
C         -0.40986        3.45364       -2.67775
C         -1.01387        2.66463       -1.71836
C          1.24038       -2.71434       -1.59702
C          0.71347       -3.51471       -2.59101
C         -0.05647       -2.94871       -3.58447
C         -0.29722       -1.58520       -3.61209
C          0.26323       -0.76540       -2.61319
Cl         1.39992        0.11361        3.02792
Cl        -1.71270       -0.53642        2.82652
C         -1.14809       -1.01998       -4.69530
C          1.59341        0.92622       -4.61372
H         -0.59867        4.51432       -2.70352
H         -1.66969        3.10475       -0.98431
H          1.83232       -3.15147       -0.80981
H          0.89742       -4.57663       -2.58439
H          0.91676        3.49033       -4.34601
H         -0.48512       -3.56973       -4.35298
C         -3.73363       -3.32003       -1.90411
C         -2.77880       -3.47366       -0.90678
C         -2.11687       -2.33649       -0.46281
C         -2.38463       -1.11400       -1.02558
C         -3.31082       -0.98197       -2.03083
C         -4.01502       -2.09022       -2.48667
H         -4.29055       -4.18219       -2.22117
H         -1.39369       -2.39248        0.33193
H         -3.48532       -0.00398       -2.44635
C         -4.49997        2.86305        1.96118
C         -3.13977        3.05877        2.16918
C         -2.25100        2.29942        1.41837
C         -2.71241        1.35565        0.53396
C         -4.05979        1.15745        0.36435
C         -4.98478        1.91356        1.06970
H         -5.19485        3.46805        2.51202
H         -1.18880        2.42540        1.53353
H         -4.39709        0.39829       -0.31866
C          4.49943       -2.79169        2.35833
C          3.16444       -3.17614        2.30949
C          2.30989       -2.44993        1.49114
C          2.77285       -1.37407        0.77558
C          4.09149       -0.99981        0.84668
C          4.98677       -1.70876        1.63693
H          5.18198       -3.33875        2.98096
H          1.26722       -2.71212        1.42715
H          4.41403       -0.13874        0.28938
C          3.68752        3.50997       -1.21347
C          2.68368        3.50313       -0.25275
C          2.04737        2.29759        0.00884
C          2.40626        1.15725       -0.66575
C          3.40358        1.17811       -1.60950
C          4.06940        2.36356       -1.90012
H          4.20357        4.42717       -1.42597
H          1.27761        2.24255        0.75930
H          3.66575        0.25766       -2.10279
Pd        -0.07541       -0.12051        1.34636
C         -2.21200       -5.86680       -1.42147
C         -2.51359       -4.85686       -0.29797
C         -3.75763       -5.30715        0.48704
C         -1.30658       -4.82735        0.65988
H         -1.97542       -6.84792       -1.01007
H         -3.06281       -5.98548       -2.09095
H         -1.36132       -5.53687       -2.01668
H         -3.59991       -6.28484        0.94202
H         -3.98836       -4.59734        1.28127
H         -4.62909       -5.37573       -0.16336
H         -1.09501       -5.82343        1.04832
H         -0.41423       -4.47320        0.14478
H         -1.49519       -4.17634        1.51316
C         -6.48673       -2.19790       -2.83316
C         -5.13383       -1.97235       -3.53166
C         -4.93898       -3.03068       -4.63482
C         -5.14794       -0.58046       -4.19427
H         -7.31117       -2.11623       -3.54124
H         -6.53196       -3.18618       -2.37647
H         -6.64202       -1.45962       -2.04659
H         -5.70114       -2.93060       -5.40747
H         -3.96443       -2.92263       -5.10916
H         -5.00709       -4.04184       -4.23621
H         -5.35955        0.20163       -3.46586
H         -4.19139       -0.36095       -4.66729
H         -5.91836       -0.52633       -4.96333
C         -2.90422        5.50545        2.63377
C         -2.65465        4.09506        3.19343
C         -1.15055        3.93274        3.49039
C         -3.41838        3.91643        4.52044
H         -3.96476        5.66829        2.44360
H         -2.56567        6.26948        3.33336
H         -2.37062        5.64670        1.69388
H         -0.55139        4.14443        2.60729
H         -0.83196        4.62254        4.27168
H         -0.92549        2.92050        3.82638
H         -4.48311        4.11129        4.40149
H         -3.30115        2.90006        4.89598
H         -3.04292        4.60168        5.28024
C         -6.80439        0.19701        1.21817
C         -6.48256        1.65784        0.85005
C         -6.82800        1.90541       -0.63021
C         -7.35355        2.58531        1.71854
H         -7.86606       -0.01328        1.09026
H         -6.24906       -0.50121        0.59289
H         -6.54200       -0.00429        2.25654
H         -7.89000        1.74535       -0.81550
H         -6.58502        2.92849       -0.91648
H         -6.27169        1.23460       -1.28356
H         -7.16939        3.63278        1.48049
H         -8.41263        2.39027        1.55024
H         -7.15445        2.43058        2.77881
C          2.21911       -5.48569        2.14023
C          2.61009       -4.36033        3.11351
C          1.36995       -3.90475        3.90871
C          3.64857       -4.90727        4.11175
H          3.08766       -5.82799        1.57791
H          1.80307       -6.33939        2.67489
H          1.47484       -5.14177        1.42393
H          0.98610       -4.71345        4.53018
H          1.61763       -3.06618        4.55909
H          0.56445       -3.58662        3.24857
H          4.52368       -5.30049        3.59497
H          3.97409       -4.12895        4.80175
H          3.22583       -5.71948        4.70303
C          6.77266       -0.91452        3.20369
C          6.46536       -1.31074        1.74835
C          6.80187       -0.11558        0.83387
C          7.34889       -2.50201        1.33441
H          7.81263       -0.60775        3.31386
H          6.13988       -0.08440        3.51720
H          6.59524       -1.74556        3.88537
H          6.59654       -0.35188       -0.21008
H          6.22309        0.76584        1.10959
H          7.85688        0.14667        0.91174
H          7.19217       -3.35916        1.98807
H          7.12234       -2.81250        0.31455
H          8.40537       -2.23815        1.38008
C          3.16229        5.96603        0.18697
C          2.27822        4.75431        0.53873
C          2.42436        4.46886        2.04598
C          0.81633        5.10610        0.21239
H          4.21101        5.76142        0.40181
H          3.06912        6.22772       -0.86687
H          2.86958        6.83943        0.76967
H          1.79399        3.63772        2.35837
H          3.45498        4.21186        2.28956
H          2.14454        5.34024        2.63768
H          0.47781        5.96048        0.79821
H          0.71024        5.35781       -0.84207
H          0.15321        4.26855        0.42177
C          4.93029        3.47653       -3.98247
C          5.23581        2.42781       -2.89656
C          5.47634        1.06772       -3.58036
C          6.51858        2.82505       -2.14259
H          4.00403        3.23768       -4.50304
H          4.82389        4.47246       -3.55441
H          5.73093        3.51705       -4.72081
H          6.29788        1.13360       -4.29356
H          5.73641        0.30176       -2.85002
H          4.59241        0.73855       -4.12503
H          6.74296        2.10343       -1.35757
H          7.37244        2.86488       -2.81871
H          6.41592        3.80421       -1.67618
H         -0.60830       -0.99493       -5.64288
H          2.42600        1.59679       -4.82652
H         -1.47224       -0.00495       -4.46214
H         -2.04307       -1.62598       -4.83762
H          1.06530        0.74609       -5.55086
H          2.01162       -0.02193       -4.27284
