171
-217.84375800
P         -1.66564        0.35394       -0.51515
P          1.64287       -0.33798       -0.25796
C         -0.86899        1.35052       -1.78062
C          1.06304       -1.28425       -1.66713
C          0.05348        0.78697       -2.65565
C          0.73873        1.63039       -3.55182
C          0.44909        2.98436       -3.56522
C         -0.49393        3.51799       -2.71320
C         -1.14478        2.69609       -1.81455
C          1.35026       -2.62677       -1.70866
C          0.87843       -3.40575       -2.74681
C          0.09907       -2.83313       -3.72940
C         -0.20291       -1.48145       -3.70390
C          0.30517       -0.68082       -2.66378
Cl         1.30447        0.37263        2.89101
Cl        -1.84255       -0.45584        2.60152
C         -1.02773       -0.88733       -4.79092
C          1.76923        1.09950       -4.48646
H         -0.71737        4.57195       -2.74241
H         -1.87433        3.10823       -1.13662
H          1.94807       -3.06735       -0.92698
H          1.11673       -4.45608       -2.78644
H          0.97375        3.62314       -4.25567
H         -0.28050       -3.43888       -4.53490
C         -3.74035       -3.42464       -1.88505
C         -2.76986       -3.50558       -0.89311
C         -2.12331       -2.33467       -0.52190
C         -2.44543       -1.14024       -1.11609
C         -3.41054       -1.07427       -2.09060
C         -4.08365       -2.22181       -2.49346
H         -4.25101       -4.32016       -2.18178
H         -1.37338       -2.35043        0.25067
H         -3.65279       -0.11755       -2.52263
C         -4.52421        2.72391        2.08836
C         -3.19247        3.11507        2.02148
C         -2.35039        2.39988        1.18103
C         -2.82097        1.33006        0.46061
C         -4.13577        0.94673        0.55192
C         -5.01899        1.64429        1.36676
H         -5.19722        3.26032        2.73023
H         -1.30944        2.66415        1.10240
H         -4.46081        0.08414       -0.00204
C          4.28185       -2.83632        2.45675
C          2.92969       -3.14706        2.37181
C          2.13927       -2.38847        1.51744
C          2.68545       -1.35392        0.79881
C          4.02004       -1.05371        0.90540
C          4.85029       -1.79287        1.73562
H          4.90022       -3.42134        3.11119
H          1.08557       -2.58558        1.42120
H          4.41744       -0.22502        0.34599
C          3.93654        3.43193       -1.22925
C          2.87282        3.50316       -0.33738
C          2.16292        2.33811       -0.08171
C          2.50696        1.16314       -0.70090
C          3.55810        1.10728       -1.58248
C          4.30052        2.24888       -1.86195
H          4.51606        4.31428       -1.42480
H          1.35033        2.33969        0.62481
H          3.80315        0.16032       -2.03288
Pd        -0.13259       -0.01805        1.20940
C         -0.95007       -5.17851       -0.49264
C         -2.41210       -4.81774       -0.18050
C         -3.31229       -5.98168       -0.63717
C         -2.58938       -4.63454        1.33940
H         -0.65094       -6.08935        0.02566
H         -0.81695       -5.33956       -1.56184
H         -0.27509       -4.37996       -0.18840
H         -3.19362       -6.17585       -1.70297
H         -3.05674       -6.89860       -0.10614
H         -4.36204       -5.76611       -0.43870
H         -3.61586       -4.35508        1.57553
H         -2.35840       -5.55602        1.87347
H         -1.93570       -3.85410        1.72615
C         -5.84406       -3.48892       -3.83243
C         -5.20463       -2.11755       -3.53955
C         -4.63443       -1.55906       -4.85484
C         -6.30111       -1.17454       -3.01132
H         -6.28757       -3.91564       -2.93296
H         -6.63521       -3.39503       -4.57629
H         -5.10693       -4.19042       -4.22278
H         -3.87176       -2.22609       -5.25476
H         -5.41704       -1.45739       -5.60655
H         -4.18547       -0.57767       -4.70731
H         -6.71012       -1.55025       -2.07376
H         -5.90954       -0.17390       -2.83207
H         -7.11986       -1.08856       -3.72549
C         -3.62009        4.76080        3.91428
C         -2.63644        4.30247        2.82009
C         -2.38304        5.47383        1.85622
C         -1.31517        3.89575        3.50428
H         -3.18666        5.56204        4.51275
H         -4.54456        5.14181        3.48129
H         -3.86546        3.93855        4.58628
H         -3.31259        5.79395        1.38586
H         -1.95624        6.32840        2.38095
H         -1.69424        5.18473        1.06409
H         -1.46180        3.01759        4.13274
H         -0.54195        3.65920        2.77554
H         -0.93667        4.70197        4.13226
C         -7.40154        2.41993        1.18560
C         -6.48798        1.22726        1.52472
C         -6.72957        0.78165        2.97810
C         -6.84941        0.05936        0.58680
H         -7.23224        3.25672        1.86200
H         -7.21796        2.76787        0.16920
H         -8.45205        2.13970        1.26159
H         -7.76097        0.46046        3.12235
H         -6.07593       -0.05096        3.23762
H         -6.53036        1.59266        3.67771
H         -6.68513        0.33484       -0.45427
H         -6.25366       -0.82546        0.81041
H         -7.89866       -0.21489        0.69522
C          0.82409       -4.41278        3.03640
C          2.34747       -4.28002        3.22879
C          2.62063       -3.98378        4.71519
C          3.00959       -5.61071        2.82964
H          0.58186       -4.65673        2.00321
H          0.42135       -5.20726        3.66441
H          0.31287       -3.48824        3.30458
H          2.19085       -4.75635        5.35250
H          3.68907       -3.93835        4.92207
H          2.18314       -3.02743        5.00136
H          2.83710       -5.82453        1.77486
H          4.08624       -5.58136        2.99344
H          2.60519       -6.43806        3.41255
C          6.45316        0.03556        2.34051
C          6.33471       -1.41480        1.83472
C          6.98157       -1.53019        0.44174
C          7.09469       -2.33688        2.80686
H          7.49759        0.32955        2.44286
H          5.97625        0.73505        1.65474
H          5.97396        0.14353        3.31331
H          6.88810       -2.54542        0.05669
H          6.50716       -0.85745       -0.27166
H          8.04149       -1.27959        0.48137
H          6.68035       -2.27265        3.81283
H          7.04920       -3.37526        2.47898
H          8.14598       -2.05499        2.86485
C          3.40585        5.96788        0.02136
C          2.47884        4.79472        0.39176
C          2.56556        4.56403        1.91255
C          1.03793        5.16949        0.00568
H          3.36262        6.17980       -1.04683
H          3.11082        6.87464        0.54935
H          4.43951        5.75093        0.29019
H          1.89456        3.76831        2.23287
H          3.57759        4.28112        2.20124
H          2.29690        5.46685        2.46067
H          0.71348        6.06888        0.52869
H          0.96462        5.35605       -1.06515
H          0.34551        4.36638        0.25256
C          5.42066        3.29728       -3.85772
C          5.54041        2.21578       -2.76711
C          5.70670        0.84660       -3.45564
C          6.78910        2.48435       -1.90725
H          6.27866        3.26839       -4.52919
H          4.52189        3.14873       -4.45493
H          5.37358        4.29607       -3.42601
H          6.57454        0.84864       -4.11502
H          5.85450        0.05302       -2.72364
H          4.83360        0.60080       -4.05909
H          6.88362        1.73535       -1.12111
H          7.69469        2.45507       -2.51289
H          6.73578        3.46273       -1.43079
H         -0.39703       -0.48536       -5.58453
H          1.40207        1.09904       -5.51366
H         -1.65197       -0.07675       -4.41213
H         -1.68466       -1.63439       -5.23684
H          2.05794        0.07960       -4.22930
H          2.66937        1.71363       -4.45477
