72
-98.09967344
Fe         0.00181        2.82027        0.02693
P          1.90417       -0.02937       -0.00980
P         -1.77657       -0.06189        0.02417
C          1.42386        1.58237        0.71212
C          0.39006        1.78839        1.71190
C          0.31766        3.20824        2.01098
C          1.30291        3.88691        1.18780
C          1.98633        2.88339        0.38755
C         -1.39957        1.58678       -0.68394
C         -2.00922        2.85426       -0.31012
C         -1.35148        3.90312       -1.07146
C         -0.38447        3.28541       -1.96028
C         -0.41282        1.85489       -1.71418
C          3.34103       -0.65354        0.98525
C          4.50889        0.13481        0.36949
C          2.83499        0.21685       -1.60271
C          4.30274        0.40488       -1.14812
C         -3.00919       -0.86716       -1.10099
C         -4.30102       -0.11002       -0.75165
C         -2.95795        0.18340        1.44178
C         -4.31697        0.38153        0.72943
H         -0.20841        1.00194        2.17380
H         -0.35345        3.67917        2.73308
H          1.50731        4.96014        1.18355
H          2.79350        3.06623       -0.32524
H         -2.78985        2.99584        0.43980
H          0.18584        1.10213       -2.22524
Cl         1.70634       -3.06592       -0.01297
Cl        -1.46508       -3.13213        0.32044
Pd         0.07687       -1.50820        0.07351
H          3.44579       -1.72268        0.76899
C          3.19027       -0.42997        2.48583
H          2.44650        1.12945       -2.06982
C          2.68455       -0.97196       -2.55290
H          5.46170       -0.38585        0.55235
H          4.59539        1.09162        0.90479
H          4.66002        1.41191       -1.40984
H          4.93899       -0.27940       -1.72642
H         -1.58085        4.96998       -1.01896
H          0.25394        3.80235       -2.68003
H          4.14931       -0.64510        2.97727
H          3.46922       -0.91661       -3.32051
H         -3.09360       -1.91735       -0.79958
C         -2.59404       -0.77121       -2.56265
H         -2.64509        1.09172        1.97077
C         -2.99595       -0.99634        2.41070
H         -5.18194       -0.73409       -0.96681
H         -4.38643        0.75254       -1.42846
H         -4.62349        1.43704        0.77528
H         -5.09207       -0.16034        1.28979
H         -2.47220        0.28681       -2.82932
H         -3.20983       -1.90964        1.84034
C          2.08938       -1.26831        3.10755
H          1.12499       -1.01775        2.67025
H          2.25517       -2.33323        2.93423
H          2.01093       -1.11459        4.18620
C          1.32869       -1.06852       -3.23005
H          1.12723       -0.18948       -3.84505
H          1.25743       -1.94396       -3.87963
H          0.52843       -1.14603       -2.49675
C         -3.57813       -1.44474       -3.50693
H         -3.69537       -2.50225       -3.26291
H         -4.56716       -0.98779       -3.44235
H         -3.25532       -1.38118       -4.54860
C         -1.72875       -1.17267        3.22650
H         -1.81348       -1.99296        3.94301
H         -0.88237       -1.39845        2.58145
H         -1.48624       -0.26872        3.78823
H          3.00532        0.63672        2.66837
H          2.89636       -1.89161       -1.99169
H         -1.59854       -1.21674       -2.68128
H         -3.85288       -0.87245        3.08755
