87
-129.18507586
P         -1.54220       -0.28560       -0.37403
P          1.70696        0.37663        0.08805
C         -1.18249        0.96764       -1.61000
C          1.55777       -0.70544       -1.35487
C         -0.12304        0.77614       -2.48789
C          0.14749        1.76794       -3.45193
C         -0.65610        2.89506       -3.50374
C         -1.70443        3.06384       -2.62382
C         -1.96483        2.09436       -1.67571
C          2.28744       -1.86949       -1.29560
C          2.17287       -2.82221       -2.28864
C          1.30551       -2.61044       -3.33740
C          0.55067       -1.45301       -3.41539
C          0.68712       -0.46884       -2.41723
Cl         1.10609        0.13384        3.25712
Cl        -1.54837       -1.69201        2.47970
H         -2.31617        3.94968       -2.67308
H         -2.78594        2.21432       -0.98876
H          2.94670       -2.03965       -0.46017
H          2.74814       -3.73197       -2.23525
H         -0.44679        3.65071       -4.24178
H          1.19876       -3.35635       -4.10673
C         -2.29929       -4.27489       -2.40667
C         -1.37495       -4.20595       -1.37325
C         -1.17797       -2.98466       -0.74073
C         -1.86645       -1.86733       -1.15177
C         -2.77289       -1.94031       -2.18318
C         -2.99514       -3.15221       -2.81060
H         -2.46914       -5.21919       -2.89520
C         -0.63010       -5.41405       -0.92642
H         -0.47530       -2.90984        0.07194
H         -3.29237       -1.04863       -2.49775
H         -3.70572       -3.21797       -3.61813
C         -5.09397        1.04395        2.15256
C         -5.18718       -0.10602        1.39361
C         -4.11506       -0.51179        0.62170
C         -2.96191        0.23677        0.60958
C         -2.86581        1.38044        1.36820
C         -3.92955        1.79954        2.15694
H         -5.92862        1.36234        2.75358
H         -6.09312       -0.68959        1.40590
H         -4.16954       -1.41397        0.03498
H         -1.95746        1.95770        1.34773
C         -3.82126        3.04623        2.96240
C          5.69944       -0.33384        2.15695
C          5.52565        0.77308        1.34990
C          4.30878        0.99124        0.73136
C          3.27711        0.10173        0.92225
C          3.44921       -1.00283        1.72430
C          4.66184       -1.23252        2.36269
H          6.64707       -0.50750        2.63771
H          6.33705        1.46677        1.20196
H          4.15786        1.85256        0.10119
H          2.63075       -1.68795        1.87213
C          4.84444       -2.43495        3.22040
C          0.91129        4.80484       -0.54239
C          1.75920        4.13845       -1.40557
C          2.02048        2.79428       -1.21578
C          1.42813        2.13066       -0.16778
C          0.61311        2.80026        0.71596
C          0.33499        4.14959        0.53716
H          0.69254        5.84731       -0.69937
H          2.20604        4.66146       -2.23511
H          2.66542        2.25357       -1.88990
H          0.21745        2.27830        1.57053
C         -0.59348        4.86001        1.45763
Pd        -0.03602       -0.42458        1.41341
C          1.27825        1.63289       -4.41155
C         -0.39606       -1.28311       -4.55293
H          0.91266        1.40119       -5.41268
H          1.85097        2.55958       -4.47045
H          1.96513        0.84068       -4.11165
H         -0.94652       -2.20611       -4.74046
H         -1.12902       -0.50151       -4.35057
H          0.13702       -1.01895       -5.46697
H         -1.15410       -5.91155       -0.10922
H         -0.51532       -6.13079       -1.74080
H          0.36850       -5.14995       -0.57490
H         -2.83957        3.12195        3.43245
H         -3.96412        3.92709        2.33483
H         -4.57016        3.07236        3.75515
H          5.64563       -2.28567        3.94552
H          3.93286       -2.65946        3.77625
H          5.09457       -3.30797        2.61596
H         -0.31881        5.91072        1.56057
H         -1.61748        4.81386        1.08410
H         -0.57741        4.41422        2.45323
