64
-97.22001362
Cl        -1.39138       -0.34978       -2.81044
Cl         1.85364       -0.70925       -2.94480
P          1.94589       -0.63170        0.29474
C          2.14932       -2.37636        0.88008
C          3.73577       -0.13811        0.17439
P         -1.29187       -0.31987        0.35245
C          1.15303        0.43491        1.55487
C         -0.28569        0.60400        1.57006
C         -0.61680        1.59727        2.57939
C          0.62928        2.06758        3.15876
C          1.72400        1.33799        2.54202
H         -1.62161        1.91766        2.86051
H          0.72425        2.81136        3.95322
Pd         0.28140       -0.68924       -1.35651
H          2.78646        1.45392        2.76520
C         -5.19054        1.72167       -0.84399
C         -4.24512        2.43581       -0.13529
C         -3.06055        1.82853        0.23757
C         -2.82158        0.51615       -0.10079
C         -3.76547       -0.19912       -0.80198
C         -4.95316        0.40313       -1.17743
H         -6.11399        2.19373       -1.13753
H         -4.42851        3.46515        0.12604
H         -2.31862        2.37749        0.78986
H         -3.56459       -1.22681       -1.06059
H         -5.68870       -0.15594       -1.73216
C         -2.35725       -4.43728        1.94577
C         -2.38588       -3.34161        2.78659
C         -2.06721       -2.08800        2.29533
C         -1.72057       -1.94382        0.97186
C         -1.69817       -3.02953        0.12720
C         -2.01600       -4.28363        0.61605
H         -2.60475       -5.41437        2.32759
H         -2.65444       -3.46177        3.82329
H         -2.07903       -1.22116        2.93727
H         -1.44158       -2.89020       -0.91079
H         -1.99853       -5.13795       -0.04056
C          4.21835       -0.00439       -1.25330
H          3.83667        0.81917        0.70242
C          4.45062       -1.27122        0.93690
H          4.55388       -1.00240        1.99841
C          3.67100       -2.60766        0.81724
H          5.47648       -1.38447        0.55694
C          1.57851       -2.53334        2.27298
H          1.61634       -3.01939        0.16633
H          3.97150       -3.30543        1.61218
H          3.93718       -3.10208       -0.12831
H          0.51835       -2.27689        2.30026
H          1.68746       -3.55684        2.63941
H          2.09150       -1.87196        2.97407
H          4.07137       -0.94037       -1.79448
H          3.67945        0.77423       -1.79457
H          5.28253        0.23752       -1.29474
Fe         0.64588        2.35722        1.13110
C         -0.09522        2.74676       -0.74523
C          1.30716        2.38954       -0.82333
C          2.05654        3.32122       -0.00385
C          1.11143        4.25946        0.57904
C         -0.21908        3.91793        0.10383
H         -0.90045        2.24962       -1.29027
H          1.71737        1.59404       -1.44728
H          3.14087        3.33322        0.12838
H          1.36314        5.10220        1.22732
H         -1.14134        4.45753        0.33063
