58
-89.86624004
P          1.68978        0.18693        0.79279
C          2.87727        1.52728        0.67587
C          4.17561        1.27226        0.29817
C          5.08067        2.31395        0.20348
C          4.67673        3.60367        0.48769
C          3.37243        3.85419        0.86631
C          2.46945        2.81007        0.96107
H          1.44497        2.99040        1.24720
H          4.47411        0.26088        0.07420
C          2.32635       -1.29930        0.00690
C          2.59467       -2.44459        0.72241
C          3.04415       -3.57459        0.06342
C          3.22277       -3.55035       -1.30587
C          2.95639       -2.39865       -2.01912
C          2.50698       -1.27127       -1.35743
H          2.28181       -0.36381       -1.89582
H          2.44713       -2.45808        1.78947
C          1.35982       -0.04891        2.58781
C          0.12229       -0.86568        2.91981
C         -1.18234       -0.14305        2.61501
P         -1.65982       -0.27035        0.84812
C         -3.21457        0.59748        0.58650
C         -4.21041        0.03499       -0.17916
C         -5.38659        0.72813       -0.40017
C         -5.55577        1.98610        0.14296
C         -4.55002        2.55369        0.89966
C         -3.37409        1.85778        1.11761
H         -2.57448        2.29958        1.69066
H         -4.05609       -0.93541       -0.62184
C         -1.78537       -2.02104        0.45944
C         -0.74599       -2.64968       -0.18574
C         -0.81440       -4.00435       -0.45175
C         -1.92510       -4.72508       -0.06112
C         -2.95993       -4.09558        0.60240
C         -2.88543       -2.73996        0.86922
H         -3.67743       -2.24046        1.40433
H          0.12877       -2.08584       -0.45870
Pd        -0.10096        0.67629       -0.59337
Cl         1.28528        1.83650       -1.92982
Cl        -1.82349        0.88106       -2.02595
H         -2.01753       -0.57148        3.17481
H         -1.12069        0.91115        2.88909
H          0.14801       -1.82093        2.37857
H          0.14729       -1.13683        3.98701
H          2.26329       -0.49844        3.00649
H          1.28160        0.94809        3.02588
H          6.09758        2.11889       -0.09502
H          3.05606        4.86116        1.08346
H          3.25136       -4.47457        0.61878
H          3.09402       -2.37788       -3.08766
H         -6.16554        0.28948       -1.00192
H         -4.67719        3.53987        1.31511
H          0.00200       -4.49485       -0.95582
H         -3.82304       -4.65948        0.91602
H          5.38008        4.41679        0.41107
H          3.57109       -4.43203       -1.81872
H         -6.47063        2.52890       -0.03066
H         -1.98141       -5.78137       -0.26798
