72
-108.40335019
Cl         1.67952       -0.90174        2.70647
Cl        -0.88466        0.90556        2.79959
P         -1.11798        1.13474       -0.26611
P          2.25190       -0.12036       -0.38888
C          3.25205        1.47394       -0.14321
C          3.60417        1.62516        1.33845
C          4.52037        1.42781       -0.98748
C          3.31904       -1.67450       -0.13468
C          4.15212       -1.96220       -1.39001
C          1.44419       -0.40741       -2.06879
C          1.51233        0.76221       -3.02841
C         -1.13292       -0.18782       -1.51389
C          0.02460       -0.94233       -1.99441
C         -0.48524       -2.01159       -2.85447
C         -1.93097       -1.91147       -2.89554
C         -2.32867       -0.77160       -2.09171
C          2.39912        2.66985       -0.54370
H          2.71179        1.60288        1.96392
H          4.27619        0.84540        1.68618
H          5.20619        0.65846       -0.63648
H          5.05097        2.37988       -0.93450
C          4.25473       -1.54448        1.06287
H          3.54471       -2.35247       -2.20568
H          4.90883       -2.71970       -1.17912
H          2.04835       -1.21448       -2.49368
H          1.15848        0.47453       -4.02060
H          2.52459        1.14867       -3.14214
H          0.86316        1.56775       -2.69290
H          0.12659       -2.70410       -3.43553
H         -2.60162       -2.55114       -3.47376
Pd         0.52347        0.24869        1.16703
H         -3.34804       -0.43295       -1.89547
C          2.34224       -2.81719        0.09981
H          4.66790       -1.07312       -1.74759
H          3.71783       -1.23654        1.95775
H          4.72744       -2.50284        1.28276
H          5.05655       -0.83417        0.86917
H          1.60142       -2.86892       -0.69935
H          2.86391       -3.77558        0.13837
H          1.82251       -2.68844        1.04790
H          4.10442        2.57841        1.51695
H          4.29682        1.23245       -2.03534
H          2.17091        2.67642       -1.60629
H          1.46508        2.67364        0.01502
H          2.91625        3.60530       -0.32336
C         -2.79247        1.22089        0.42370
C         -3.22964        2.17070        1.31331
C         -4.56307        1.88094        1.60191
C         -4.88816        0.76477        0.87187
O         -3.81093        0.34963        0.14386
H         -2.64209        2.97285        1.72814
H         -5.20997        2.42486        2.27070
H         -5.85234        0.27161        0.86486
C         -0.73264        2.75285       -0.95817
C         -0.66848        3.89916       -0.20489
C         -0.34998        4.94266       -1.07509
C         -0.23324        4.38789       -2.32596
O         -0.46160        3.04252       -2.26759
H         -0.81516        3.96805        0.86087
H         -0.22031        5.98065       -0.81565
H          0.00711        4.92417       -3.23558
Fe        -1.30618       -2.12594       -0.95987
C         -2.99960       -2.82300       -0.03796
C         -2.20699       -2.01439        0.86796
C         -0.90025       -2.62467        0.98598
C         -0.87323       -3.80592        0.14377
C         -2.17126       -3.92474       -0.49516
H         -4.03823       -2.63476       -0.31932
H         -2.53987       -1.11338        1.38673
H         -0.10838       -2.27879        1.65284
H         -0.04564       -4.51222        0.04789
H         -2.48247       -4.72304       -1.17284
