45
-71.81956185
C          0.40903        1.46724        3.15073
P         -0.16808        0.74242        1.58120
P         -0.13320        0.78002       -1.59435
C          0.44231        1.52289       -3.15607
Cl         2.93748       -0.14925        1.62820
H          1.18206        0.83782        3.58238
H          0.83516        2.51811       -2.96871
Cl         3.10004        0.34823       -1.54017
C         -1.31636        1.80897        0.68266
C         -1.30186        1.82501       -0.69640
C         -2.20803        2.60041       -1.39026
C         -3.12722        3.36911       -0.69823
C         -3.14148        3.35317        0.68285
C         -2.23665        2.56834        1.37564
H         -2.19693        2.59471       -2.46817
H         -3.83479        3.97683       -1.23790
H         -3.86017        3.94840        1.22176
H         -2.24768        2.53740        2.45316
Pd         1.47283        0.37262        0.00545
H         -0.37891        1.59042       -3.86381
H         -0.41584        1.54423        3.85321
H          1.22864        0.90894       -3.58590
C         -1.74237       -3.44897       -1.97915
C         -0.38973       -3.20765       -2.12056
C          0.09137       -1.91436       -2.02789
C         -0.78205       -0.87697       -1.79596
C         -2.12963       -1.11081       -1.65090
C         -2.61391       -2.40301       -1.74602
H         -2.11841       -4.45669       -2.04708
H          0.29086       -4.02439       -2.29618
H          1.14604       -1.70450       -2.11447
H         -2.79318       -0.28517       -1.44997
H         -3.66815       -2.59308       -1.62920
C         -1.84620       -3.46279        1.93844
C         -2.70603       -2.39519        1.76772
C         -2.20080       -1.11050        1.67912
C         -0.84354       -0.90587        1.76734
C          0.01719       -1.96526        1.93749
C         -0.48407       -3.25075        2.02390
H         -2.23908       -4.46439        2.00159
H         -3.76807       -2.56239        1.69490
H         -2.85592       -0.26782        1.52735
H          1.07814       -1.77560        1.98206
H          0.18746       -4.08376        2.15141
H          0.81920        2.45705        2.97187
