111
-148.55452616
P         -2.41548       -2.34217       -0.02956
P          0.00981       -0.35517       -0.50990
C         -1.70095       -2.18079       -1.68474
C         -0.67879       -1.28179       -1.89648
C         -2.58759       -4.11044        0.47908
C         -1.85938       -4.35073        1.78367
C         -2.19151       -2.92764       -2.73655
H         -2.97662       -3.64446       -2.55939
C         -1.67051       -2.75338       -4.00707
H         -2.05435       -3.33442       -4.82967
C         -0.66580       -1.82987       -4.22296
H         -0.26597       -1.68718       -5.21340
C         -0.16945       -1.09065       -3.16424
H          0.61167       -0.36220       -3.31745
Pd        -1.27069       -0.89721        1.35264
Cl        -2.75166       -1.24954        3.00098
Cl        -0.15505        0.66216        2.53252
C         -4.11571       -4.30665        0.56952
C         -4.18350       -1.79490        0.07265
H         -1.94771       -5.39066        2.10744
H         -0.79648       -4.11199        1.69597
H         -2.27296       -3.72196        2.57458
H         -4.34582       -5.02925        1.36595
H         -4.49065       -4.76129       -0.35917
H         -4.19291       -0.87774        0.67749
C         -4.85740       -2.96322        0.82009
C         -4.76962       -1.53107       -1.29847
H         -2.15280       -4.71942       -0.32516
H         -5.91134       -3.03764        0.51455
H         -4.87429       -2.75367        1.89983
H         -5.78717       -1.13887       -1.23122
H         -4.16547       -0.81503       -1.85986
H         -4.81324       -2.45154       -1.88249
C         -1.09307        4.05391       -0.70628
C          0.27360        3.67998       -0.77599
C          0.58934        2.33318       -0.71702
C         -0.39293        1.38017       -0.66491
C         -1.71761        1.72960       -0.70026
C         -2.10336        3.05916       -0.75199
O         -1.44659        5.42222       -0.56216
C          1.40977        4.71061       -0.87070
H          1.61448        2.00874       -0.69346
H         -2.45119        0.94222       -0.66511
C         -3.60101        3.39928       -0.80303
C          4.47775       -1.09438        0.09975
C          3.76593       -0.23966        0.97838
C          2.40620       -0.08049        0.77575
C          1.76869       -0.65340       -0.29308
C          2.47537       -1.39963       -1.20101
C          3.83639       -1.61038       -1.05484
O          5.81675       -1.46574        0.39406
C          4.43103        0.49115        2.15530
H          1.81032        0.47789        1.47516
H          1.94396       -1.83296       -2.02841
C          4.59193       -2.40967       -2.12874
C          0.97688        5.93422       -1.69838
C          1.82308        5.14517        0.54371
C          2.64419        4.10294       -1.57575
C         -4.39377        2.27657       -1.50940
C         -4.13688        3.54017        0.63028
C         -3.85060        4.69305       -1.59875
C         -1.55173        5.85878        0.78733
H          1.79984        6.63877       -1.81599
H          0.64715        5.62874       -2.69082
H          0.15539        6.46448       -1.22306
H          1.00003        5.62499        1.06659
H          2.13214        4.28470        1.13588
H          2.65446        5.84877        0.50910
H          3.11399        3.32858       -0.97107
H          2.36786        3.66917       -2.53643
H          3.39974        4.86666       -1.75877
H         -4.41809        1.36883       -0.90919
H         -5.42833        2.57695       -1.67400
H         -3.95496        2.04007       -2.47842
H         -5.20215        3.76940        0.62847
H         -3.99120        2.61493        1.18760
H         -3.62345        4.33235        1.16895
H         -4.91688        4.90095       -1.68415
H         -3.38622        5.55100       -1.11952
H         -3.43960        4.60972       -2.60429
H         -1.30516        5.04499        1.47059
H         -0.87269        6.69472        0.95431
H         -2.56651        6.20450        0.98306
C          5.92915       -2.62457        1.21090
C          5.90583        0.81290        1.85299
C          3.72604        1.84084        2.42156
C          4.32400       -0.37797        3.41721
C          6.03909       -1.90537       -2.27670
C          4.58682       -3.89918       -1.75351
C          3.91557       -2.24782       -3.50937
H          6.35470        1.38960        2.66134
H          6.49381       -0.09291        1.73022
H          5.99109        1.39286        0.93460
H          4.26374        2.41686        3.17423
H          3.68324        2.43755        1.51126
H          2.71079        1.70311        2.79002
H          4.78018        0.11838        4.27329
H          3.28032       -0.57729        3.65934
H          4.82022       -1.33587        3.27924
H          6.60912       -2.06301       -1.36440
H          6.55566       -2.42715       -3.08192
H          6.05297       -0.83898       -2.49949
H          5.07948       -4.06691       -0.79890
H          3.56620       -4.27201       -1.67037
H          5.10319       -4.49332       -2.50707
H          2.93887       -2.72863       -3.53926
H          4.52027       -2.70532       -4.29209
H          3.78844       -1.19446       -3.75790
H          6.41645       -2.36644        2.15085
H          4.94279       -3.04227        1.41648
H          6.54152       -3.36982        0.70333
