111
-148.55432233
P         -2.45300       -2.13062       -1.01257
P          0.12832       -0.33999       -0.54964
C         -1.33693       -1.77594       -2.39772
C         -0.20058       -1.02636       -2.18267
C         -3.13855       -3.84727       -1.10245
C         -2.51056       -4.74660       -0.06017
C         -1.62495       -2.23916       -3.66560
H         -2.52507       -2.80740       -3.83378
C         -0.76517       -1.95792       -4.71351
H         -0.98916       -2.31960       -5.70379
C          0.37737       -1.21282       -4.49283
H          1.04552       -0.99253       -5.30906
C          0.65884       -0.74199       -3.22283
H          1.53930       -0.14744       -3.03439
Pd        -1.33892       -1.40528        0.87360
Cl        -3.02349       -2.28530        2.07015
Cl        -0.11267       -0.81605        2.66102
C         -4.65263       -3.62133       -0.93205
C         -4.01793       -1.14568       -1.07022
H         -1.42722       -4.80730       -0.18915
H         -2.69897       -4.36604        0.94465
H         -2.91628       -5.75976       -0.11002
H         -4.90764       -3.73377        0.13075
H         -5.21960       -4.40538       -1.45666
H         -4.17693       -0.76772       -0.05133
C         -5.07913       -2.20606       -1.41774
C         -3.91276       -0.00252       -2.05662
H         -2.91942       -4.21754       -2.11200
H         -5.22220       -2.21980       -2.50702
H         -6.05540       -1.92334       -0.99535
H         -3.69475       -0.37444       -3.05945
H         -4.84297        0.56800       -2.10850
H         -3.10944        0.68415       -1.78019
C         -1.15642        4.01688       -0.22990
C         -1.09548        3.40325       -1.50803
C         -0.68659        2.08216       -1.58372
C         -0.42405        1.36046       -0.44935
C         -0.59637        1.91554        0.79086
C         -0.99386        3.23185        0.93982
O         -1.34077        5.42114       -0.12440
C         -1.43201        4.15843       -2.80338
H         -0.55816        1.59880       -2.53587
H         -0.40705        1.29425        1.64920
C         -1.20492        3.78666        2.35675
C          4.39800       -0.83798        0.94531
C          3.77405        0.43426        1.00021
C          2.47612        0.54576        0.53301
C          1.82921       -0.52256       -0.03035
C          2.46196       -1.72880       -0.17722
C          3.76414       -1.90809        0.26204
O          5.63573       -1.05060        1.60853
C          4.45462        1.67419        1.60065
H          1.94133        1.47452        0.62322
H          1.91479       -2.53742       -0.63087
C          4.45143       -3.26237        0.02723
C         -0.16000        4.82560       -3.34771
C         -1.97822        3.18868       -3.87618
C         -2.52325        5.21668       -2.55956
C         -2.27316        4.89476        2.36825
C         -1.70202        2.67281        3.30734
C          0.12957        4.32845        2.89175
C         -0.12750        6.16293       -0.10714
H          0.60983        4.08085       -3.54857
H         -0.36509        5.35834       -4.27593
H          0.24704        5.53837       -2.63453
H         -1.21411        2.49292       -4.21949
H         -2.81762        2.61315       -3.48741
H         -2.32683        3.73710       -4.75099
H         -3.41352        4.75785       -2.13068
H         -2.18176        5.98762       -1.87321
H         -2.80868        5.70697       -3.48995
H         -2.46579        5.24286        3.38275
H         -1.96110        5.75381        1.77989
H         -3.21057        4.52779        1.95165
H         -2.57723        2.17226        2.89404
H         -0.93370        1.92290        3.48892
H         -1.97927        3.08629        4.27662
H          0.87898        3.53812        2.92709
H          0.51610        5.12235        2.25689
H          0.01345        4.72789        3.89887
H          0.72862        5.49538       -0.21322
H         -0.12960        6.88432       -0.92415
H         -0.04584        6.71132        0.83112
C          5.50102       -1.47814        2.95825
C          3.93700        2.96374        0.92187
C          4.13340        1.74918        3.10119
C          5.97781        1.63366        1.38282
C          5.97206       -3.09256       -0.14349
C          4.15181       -4.19566        1.21010
C          3.92560       -3.92251       -1.26784
H          4.03093        2.89591       -0.16163
H          2.89321        3.15810        1.16380
H          4.50747        3.83101        1.25357
H          4.58718        2.62998        3.55471
H          3.05683        1.80251        3.26191
H          4.50193        0.87200        3.62751
H          6.21122        1.53891        0.32287
H          6.45118        2.54200        1.75477
H          6.43088        0.79171        1.89997
H          6.43271       -2.70539        0.76183
H          6.44927       -4.04469       -0.37415
H          6.19194       -2.39780       -0.95339
H          4.52589       -3.78192        2.14341
H          3.07792       -4.34404        1.32113
H          4.61466       -5.17142        1.06491
H          4.00733       -3.23844       -2.11216
H          2.88441       -4.22667       -1.17215
H          4.49919       -4.81803       -1.50588
H          4.44704       -1.56751        3.22476
H          5.99214       -2.44247        3.08741
H          5.98365       -0.75929        3.62012
