111
-148.55607479
P         -2.54589       -2.02140       -0.89272
P          0.17268       -0.42933       -0.48349
C         -1.40256       -1.81021       -2.28477
C         -0.20569       -1.15378       -2.09196
C         -3.40260       -3.66097       -0.93155
C         -2.84848       -4.59613        0.12106
C         -1.73060       -2.28878       -3.53705
H         -2.67676       -2.78208       -3.68815
C         -0.85137       -2.11692       -4.59237
H         -1.10675       -2.49073       -5.57048
C          0.35012       -1.46387       -4.39493
H          1.03313       -1.32751       -5.21717
C          0.67158       -0.97577       -3.14117
H          1.59742       -0.44778       -2.97368
Pd        -1.33186       -1.41856        0.96775
Cl        -3.06549       -2.04992        2.24490
Cl        -0.04696       -0.77966        2.69850
C         -4.88183       -3.27794       -0.73690
C         -4.00301       -0.88293       -0.95466
H         -1.78012       -4.77145       -0.02642
H         -2.97578       -4.17489        1.11933
H         -3.35722       -5.56282        0.10427
H         -5.12285       -3.33819        0.33342
H         -5.53700       -4.01268       -1.22921
H         -4.10132       -0.46045        0.05441
C         -5.17373       -1.83880       -1.25070
C         -3.80651        0.21344       -1.97917
H         -3.24394       -4.07383       -1.93579
H         -5.34326       -1.86471       -2.33596
H         -6.10621       -1.44797       -0.81573
H         -3.64125       -0.20896       -2.97204
H         -4.67911        0.86817       -2.03686
H         -2.93824        0.82930       -1.73626
C         -1.19863        3.91356       -0.34217
C         -0.98672        3.28759       -1.59768
C         -0.54501        1.97506       -1.61143
C         -0.38509        1.27286       -0.44611
C         -0.69073        1.84130        0.76176
C         -1.13949        3.14636        0.84894
O         -1.43188        5.31303       -0.27799
C         -1.20358        4.02103       -2.93048
H         -0.31649        1.48037       -2.53876
H         -0.56649        1.24127        1.64617
C         -1.53355        3.70302        2.22560
C          4.51006       -0.81631        0.84757
C          3.77978        0.36437        1.13607
C          2.46310        0.43724        0.71559
C          1.89324       -0.57086       -0.01651
C          2.62308       -1.67197       -0.38068
C          3.94969       -1.80458       -0.00267
O          5.78356       -1.02682        1.44002
C          4.36943        1.53895        1.93212
H          1.85299        1.28483        0.97336
H          2.13567       -2.43524       -0.96238
C          4.74924       -3.02200       -0.49336
C         -1.58623        3.02548       -4.04948
C         -2.35572        5.03608       -2.81983
C          0.09453        4.73586       -3.33446
C         -2.11320        2.58017        3.11749
C         -0.28864        4.28354        2.91343
C         -2.62473        4.78130        2.09920
C         -0.24985        6.08844       -0.12355
H         -2.44019        2.41723       -3.75321
H         -1.85563        3.55578       -4.96260
H         -0.76051        2.36064       -4.29861
H         -2.55281        5.51159       -3.78031
H         -3.27031        4.54388       -2.49069
H         -2.12389        5.82212       -2.10524
H          0.38879        5.46957       -2.58794
H          0.91124        4.02181       -3.43806
H         -0.02456        5.25351       -4.28595
H         -2.51655        2.99016        4.04297
H         -2.91858        2.05468        2.60497
H         -1.35372        1.85143        3.39631
H          0.15458        5.08006        2.32018
H         -0.53780        4.69051        3.89303
H          0.46892        3.51255        3.05191
H         -2.26716        5.64587        1.54593
H         -3.49460        4.38649        1.57531
H         -2.94812        5.12859        3.08015
H         -0.18307        6.81499       -0.93328
H         -0.28750        6.63247        0.81997
H          0.63151        5.44590       -0.13720
C          5.73318       -1.69437        2.69476
C          3.72391        2.87404        1.49351
C          4.08646        1.32645        3.42715
C          5.88352        1.67302        1.68973
C          6.23914       -2.67452       -0.66647
C          4.58758       -4.17509        0.50852
C          4.23466       -3.49122       -1.87350
H          3.79216        3.00144        0.41346
H          2.67471        2.92933        1.77916
H          4.22668        3.71937        1.96282
H          4.48008        2.15102        4.02087
H          3.01408        1.25971        3.60971
H          4.53982        0.40588        3.78696
H          6.42222        0.79932        2.04748
H          6.09344        1.78207        0.62625
H          6.28750        2.54327        2.20643
H          6.69814       -2.41042        0.28296
H          6.79336       -3.51842       -1.07654
H          6.35977       -1.82869       -1.34249
H          4.96036       -3.89834        1.49170
H          3.53788       -4.44696        0.61686
H          5.13319       -5.05868        0.17833
H          4.21791       -2.66396       -2.58264
H          3.23100       -3.90879       -1.80971
H          4.87881       -4.26939       -2.28234
H          4.70212       -1.93837        2.95397
H          6.32278       -2.60970        2.64562
H          6.16033       -1.05549        3.46747
