111
-148.55822409
P         -1.98775       -2.60435       -0.55029
P         -0.20981        0.02348       -0.57798
C         -1.39451       -1.93045       -2.12255
C         -0.66957       -0.75873       -2.13595
C         -1.47747       -4.36990       -0.34281
C         -0.56613       -4.50905        0.85719
C         -1.66990       -2.58563       -3.30546
H         -2.22776       -3.50776       -3.28485
C         -1.22395       -2.05725       -4.50462
H         -1.43998       -2.56649       -5.42961
C         -0.50111       -0.87968       -4.51652
H         -0.15095       -0.46980       -5.44956
C         -0.21777       -0.23161       -3.32746
H          0.36185        0.67764       -3.31905
Pd        -1.33241       -1.12450        1.08624
Cl        -2.74479       -2.12530        2.51368
Cl        -0.60096        0.36181        2.60111
C         -2.81565       -5.12468       -0.20631
C         -3.82757       -2.80254       -0.53338
H         -0.23271       -5.54101        0.99109
H          0.31637       -3.87351        0.75992
H         -1.08320       -4.20546        1.76989
H         -2.99684       -5.32793        0.85793
H         -2.74868       -6.11291       -0.68553
H         -4.14895       -2.54665        0.48497
C         -4.00875       -4.31028       -0.78134
C         -4.50339       -1.90150       -1.54497
H         -0.96046       -4.65199       -1.26938
H         -4.09004       -4.48567       -1.86282
H         -4.96295       -4.65564       -0.35480
H         -4.17283       -2.13463       -2.55817
H         -5.58944       -2.01644       -1.51867
H         -4.26843       -0.85086       -1.35815
C         -0.97615        4.51121       -0.40323
C          0.12898        4.02232       -1.14631
C          0.35313        2.65503       -1.16961
C         -0.51350        1.78740       -0.55662
C         -1.64277        2.24898        0.06754
C         -1.92133        3.60354        0.13768
O         -1.11789        5.90650       -0.17740
C          1.08453        4.95669       -1.90624
H          1.21990        2.24776       -1.66050
H         -2.30156        1.53019        0.52357
C         -3.21224        4.06070        0.83478
C          4.00142       -1.26415        0.57788
C          3.59456        0.07234        0.82584
C          2.30280        0.43852        0.48587
C          1.46716       -0.43621       -0.15577
C          1.88546       -1.69978       -0.48476
C          3.16031       -2.13481       -0.16154
O          5.23731       -1.75150        1.08201
C          4.51731        1.12733        1.45704
H          1.92564        1.41627        0.72918
H          1.19362       -2.34309       -1.00052
C          3.63147       -3.52703       -0.61137
C          0.33057        6.17728       -2.46518
C          2.21033        5.41606       -0.96806
C          1.71927        4.22763       -3.11211
C         -4.32519        2.99934        0.67475
C         -2.93459        4.25343        2.33359
C         -3.74721        5.36566        0.21802
C         -0.47814        6.37259        1.00412
H          0.99171        6.80865       -3.05824
H         -0.49572        5.86004       -3.10047
H         -0.07936        6.79002       -1.66600
H          1.81587        5.95370       -0.10975
H          2.77171        4.56124       -0.59424
H          2.90613        6.07516       -1.48665
H          2.40219        3.44148       -2.79324
H          0.95147        3.78187       -3.74400
H          2.29468        4.92170       -3.72433
H         -5.27561        3.37604        1.05205
H         -4.46219        2.73588       -0.37370
H         -4.09980        2.09072        1.23113
H         -2.16763        5.00594        2.49956
H         -3.83500        4.56720        2.86094
H         -2.58669        3.32319        2.78235
H         -4.69421        5.65469        0.67314
H         -3.05053        6.18778        0.35982
H         -3.90803        5.24577       -0.85283
H          0.22786        7.16262        0.74853
H         -1.22091        6.78937        1.68394
H          0.04993        5.55616        1.49847
C          5.17630       -2.21909        2.42393
C          4.18727        2.53289        0.90416
C          4.30769        1.13989        2.97899
C          5.99453        0.85631        1.11821
C          3.50754       -4.52437        0.55018
C          2.77937       -4.04792       -1.79044
C          5.09190       -3.46233       -1.09377
H          4.19908        2.53081       -0.18551
H          3.20999        2.87847        1.23759
H          4.91841        3.26528        1.24573
H          4.95228        1.87750        3.45625
H          3.27444        1.38677        3.22209
H          4.52367        0.16882        3.41736
H          6.13809        0.81519        0.03898
H          6.63791        1.64080        1.51588
H          6.33433       -0.08839        1.53333
H          2.48450       -4.56596        0.92020
H          3.79254       -5.52757        0.23406
H          4.14954       -4.24407        1.38016
H          3.18977       -4.97816       -2.18258
H          1.75496       -4.25403       -1.48327
H          2.75665       -3.32406       -2.60471
H          5.75869       -3.15939       -0.28929
H          5.19713       -2.74217       -1.90451
H          5.42856       -4.43334       -1.45597
H          4.13935       -2.29063        2.75471
H          5.64906       -3.19924        2.48643
H          5.72140       -1.54211        3.08046
