59
-75.81233697
Cl         1.61498        0.69872        2.25888
P          1.62128       -0.06790       -0.84529
P         -1.65666       -0.08656       -0.78561
C          0.58079        0.32509       -2.31815
H          0.32020        1.38599       -2.29608
H          1.17698        0.15009       -3.21899
C         -0.65505       -0.52911       -2.27467
H         -0.38890       -1.58721       -2.21043
H         -1.28258       -0.40002       -3.16216
C          2.51511       -1.65815       -1.19426
H          2.29791       -1.86348       -2.25123
C          3.08215        1.05740       -0.65839
H          3.22340        1.18923        0.42129
C         -2.97296       -1.34281       -0.44434
H         -3.33941       -1.12801        0.56723
C         -2.78676        1.31118       -1.25247
H         -2.31551        1.82732       -2.09781
C          4.00244       -1.29185       -1.04244
H          4.35049       -1.57995       -0.04326
H          4.61437       -1.87977       -1.74317
C          4.23798        0.22838       -1.24437
H          4.32234        0.44860       -2.31760
H          5.19635        0.54142       -0.80244
C         -4.03463       -0.94805       -1.48385
H         -3.78515       -1.43958       -2.43555
H         -5.02031       -1.34733       -1.19782
C         -4.09141        0.59484       -1.68697
H         -4.92593        1.00430       -1.10107
H         -4.33205        0.83594       -2.73298
C          2.04045       -2.82784       -0.33428
H          2.53947       -3.74623       -0.67369
H          0.97384       -2.99371       -0.53390
C          2.89150        2.41475       -1.32432
H          3.85493        2.94314       -1.34274
H          2.62821        2.26026       -2.37868
C         -2.50270       -2.79099       -0.52638
H         -3.38067       -3.44946       -0.58214
H         -1.97122       -2.94382       -1.47362
C         -3.01185        2.28515       -0.09793
H         -3.86820        2.92998       -0.34101
H         -3.32208        1.71333        0.78678
C          2.26391       -2.65394        1.16201
H          1.79704       -3.45548        1.73926
H          1.85133       -1.71232        1.52240
H          3.32399       -2.65437        1.41885
C          1.84445        3.27111       -0.63213
H          0.87516        2.77405       -0.62510
H          1.71449        4.23953       -1.12051
H          2.11322        3.45922        0.40908
C         -1.63095       -3.19464        0.65225
H         -1.26786       -4.22118        0.56497
H         -2.17984       -3.11827        1.59279
H         -0.76227       -2.54324        0.74336
C         -1.80563        3.14976        0.22976
H         -1.46822        3.70644       -0.64652
H         -2.02514        3.87575        1.01597
H         -0.96755        2.54807        0.57814
Cl        -1.60541        0.10862        2.37385
Pd         0.00545        0.10950        0.81067
