72
-108.39782033
Cl         1.80410       -0.28698        2.86114
Cl        -0.82467        1.28290        2.74193
P         -1.20328        1.00289       -0.30856
P          2.21339       -0.19010       -0.39634
C          3.38035        1.29967       -0.26609
C          4.07232        1.25976        1.09331
C          4.42888        1.28470       -1.38631
C          3.12860       -1.84478       -0.14123
C          4.49157       -1.80265       -0.82383
C          1.42931       -0.35857       -2.09813
C          1.34453        0.90360       -2.93780
C         -1.14467       -0.29478       -1.58040
C          0.05402       -1.00474       -2.02738
C         -0.38709       -2.12399       -2.86186
C         -1.83375       -2.10500       -2.93597
C         -2.29503       -0.99955       -2.11709
C          2.54581        2.57578       -0.34947
H          3.34472        1.22264        1.90392
H          4.73076        0.39762        1.18400
H          4.01858        0.93139       -2.32967
H          5.27589        0.64673       -1.14025
C          3.30438       -2.14730        1.34174
H          4.93977       -2.79744       -0.84548
H          5.18411       -1.15650       -0.28745
H          2.10504       -1.05219       -2.61154
H          0.65165        1.61116       -2.49098
H          0.95606        0.68042       -3.93345
H          2.30218        1.40259       -3.07025
H          0.26925       -2.78434       -3.43069
H         -2.46239       -2.79819       -3.49894
Pd         0.53491        0.42742        1.14997
H         -3.33472       -0.71922       -1.93182
C          2.29419       -2.95291       -0.78004
H          4.40682       -1.45708       -1.85450
H          2.34052       -2.27012        1.83253
H          3.86511       -3.07215        1.48546
H          3.84146       -1.35263        1.85598
H          2.32866       -2.91246       -1.86848
H          2.66020       -3.93768       -0.48405
H          1.25585       -2.87360       -0.47293
H          4.68465        2.15125        1.23925
H          4.83302        2.28503       -1.55005
H          1.81869        2.62472        0.46033
H          3.18171        3.45850       -0.26324
H          2.01059        2.65477       -1.29242
C         -2.89601        1.06299        0.33361
C         -3.38089        2.06460        1.13704
C         -4.71059        1.75467        1.42240
C         -4.98476        0.57452        0.77649
O         -3.88008        0.13934        0.10312
H         -2.82820        2.92134        1.48636
H         -5.38893        2.32887        2.03210
H         -5.93316        0.05174        0.78958
C         -0.79857        2.65576       -0.89697
C         -0.54168        3.67936       -0.01964
C         -0.26556        4.81384       -0.78401
C         -0.36754        4.43279       -2.09988
O         -0.69219        3.10857       -2.18392
H         -0.54483        3.59941        1.05608
H         -0.02084        5.79591       -0.41369
H         -0.21466        5.07557       -2.95796
Fe        -1.25846       -2.22023       -0.95212
C         -2.87370       -2.67137        0.15792
C         -1.90547       -1.95975        0.97129
C         -0.67997       -2.72703        0.96436
C         -0.89834       -3.88902        0.11717
C         -2.29089       -3.92172       -0.29647
H         -3.90871       -2.35698        0.00270
H         -2.07078       -1.02470        1.51084
H          0.22211       -2.47351        1.52265
H         -0.17772       -4.69344       -0.05052
H         -2.77441       -4.68388       -0.91072
