72
-98.09613147
Fe         0.04217        2.82988        0.01547
P          1.88494       -0.04012       -0.00183
P         -1.75742       -0.05631       -0.04763
C          1.42152        1.58821        0.70234
C          0.42266        1.81088        1.73508
C          0.37469        3.23584        2.01066
C          1.36734        3.89057        1.17685
C          2.02690        2.87055        0.37807
C         -1.37287        1.60983       -0.71704
C         -1.98822        2.86731       -0.31836
C         -1.36582        3.93537       -1.08002
C         -0.37943        3.33837       -1.95980
C         -0.40460        1.90097       -1.75891
C          3.33546       -0.66564        0.96982
C          4.49443        0.09435        0.30428
C          2.77042        0.15923       -1.62572
C          4.25848        0.29829       -1.21904
C         -2.84538       -0.94028       -1.27042
C         -4.25545       -0.88007       -0.64780
C         -3.00934        0.16281        1.31387
C         -4.32934        0.13995        0.51873
H         -0.18991        1.04167        2.20457
H         -0.27647        3.72534        2.73836
H          1.59361        4.95921        1.16673
H          2.83247        3.03104       -0.34193
H         -2.77556        2.98912        0.42779
H          0.20781        1.16860       -2.28156
Cl         1.66676       -3.09903        0.01868
Cl        -1.47219       -3.09921        0.55615
Pd         0.06875       -1.51107        0.12948
H          3.42263       -1.73992        0.77143
C          3.22082       -0.41387        2.46923
H          2.40202        1.08194       -2.08854
C          2.54290       -1.03406       -2.55637
H          5.44946       -0.42087        0.49162
H          4.59072        1.07284        0.79711
H          4.65592        1.27197       -1.54196
H          4.84438       -0.44575       -1.77625
H         -1.60555        4.99835       -1.01024
H          0.24876        3.87307       -2.67555
H          4.20274       -0.57466        2.93564
H          3.30862       -1.02033       -3.34476
H         -2.48361       -1.97445       -1.32376
C         -2.75401       -0.30133       -2.65223
H         -2.82703        1.14329        1.76986
C         -2.98038       -0.92201        2.38823
H         -4.54756       -1.87561       -0.28367
H         -4.99239       -0.62493       -1.42152
H         -4.54108        1.14212        0.11706
H         -5.16852       -0.09622        1.19013
H         -3.17185        0.71292       -2.60032
H         -3.06289       -1.90025        1.89850
C          2.17979       -1.29071        3.14106
H          1.19679       -1.12563        2.70456
H          2.41158       -2.34976        3.01325
H          2.10243       -1.09433        4.21281
C          1.16627       -1.08887       -3.19943
H          0.98863       -0.21729       -3.83199
H          1.04570       -1.97414       -3.82807
H          0.37540       -1.11855       -2.45117
C         -3.44888       -1.11137       -3.73735
H         -3.02354       -2.11404       -3.81139
H         -4.51382       -1.22964       -3.53175
H         -3.35642       -0.64260       -4.71973
C         -1.75346       -0.88131        3.27910
H         -1.77963       -1.65594        4.04897
H         -0.84859       -1.03823        2.69600
H         -1.65938        0.08167        3.78449
H          2.99309        0.64728        2.63432
H          2.73374       -1.95426       -1.98878
H         -1.69729       -0.16283       -2.91461
H         -3.88532       -0.83527        3.00544
