171
-217.84530845
P         -1.58355        0.40724       -0.37960
P          1.61418       -0.33161       -0.24363
C         -0.81506        1.43984       -1.63585
C          0.99021       -1.23595       -1.66517
C          0.04730        0.89261       -2.57968
C          0.71765        1.75714       -3.46672
C          0.47021        3.11827       -3.40294
C         -0.41222        3.63814       -2.47997
C         -1.04646        2.79327       -1.59095
C          1.21429       -2.58915       -1.73549
C          0.70565       -3.32386       -2.78837
C         -0.03883       -2.69439       -3.76332
C         -0.27613       -1.33085       -3.71154
C          0.26078       -0.57866       -2.64891
Cl         1.47670        0.28730        2.95500
Cl        -1.75452       -0.38534        2.76472
C         -1.07414       -0.68330       -4.78878
C          1.69137        1.24032       -4.46764
H         -0.60078        4.69870       -2.44562
H         -1.72678        3.19328       -0.85712
H          1.79330       -3.07387       -0.96659
H          0.88946       -4.38419       -2.84687
H          0.98288        3.77397       -4.08646
H         -0.44520       -3.26444       -4.58174
C         -3.62808       -3.35356       -1.83180
C         -2.73554       -3.44140       -0.77018
C         -2.09148       -2.27937       -0.36847
C         -2.33402       -1.09050       -1.00963
C         -3.22117       -1.01740       -2.05516
C         -3.89214       -2.15604       -2.48610
H         -4.15196       -4.23488       -2.15044
H         -1.41410       -2.29506        0.46820
H         -3.39902       -0.05965       -2.51406
C         -4.70349        2.66426        2.02320
C         -3.37237        3.05335        2.12790
C         -2.43332        2.37497        1.36213
C         -2.81372        1.34015        0.54486
C         -4.12978        0.96031        0.46548
C         -5.10548        1.61792        1.20078
H         -5.44329        3.18275        2.60181
H         -1.39176        2.64286        1.41727
H         -4.39888        0.13122       -0.16535
C          4.27702       -2.92793        2.35925
C          2.92864       -3.25013        2.25074
C          2.13830       -2.46409        1.42215
C          2.67249       -1.38661        0.76082
C          3.99989       -1.06934        0.90046
C          4.83365       -1.83797        1.69982
H          4.90751       -3.53836        2.97623
H          1.09126       -2.68080        1.29977
H          4.38951       -0.20582        0.39073
C          3.92780        3.40750       -1.28464
C          2.84793        3.51005       -0.41682
C          2.14350        2.35080       -0.11904
C          2.49822        1.15687       -0.69509
C          3.55462        1.07464       -1.56839
C          4.29948        2.20688       -1.87704
H          4.51093        4.28658       -1.48783
H          1.31844        2.36661        0.57151
H          3.79973        0.11530       -1.99182
Pd        -0.06153        0.01156        1.34599
C         -3.32344       -5.90991       -0.55094
C         -2.46528       -4.74897       -0.01345
C         -2.79509       -4.54848        1.47828
C         -0.98210       -5.12402       -0.17068
H         -3.12306       -6.82687        0.00319
H         -4.38633       -5.68998       -0.45243
H         -3.10571       -6.10566       -1.60073
H         -2.62277       -5.46456        2.04291
H         -2.18094       -3.76524        1.92031
H         -3.83915       -4.26350        1.60600
H         -0.74762       -6.03305        0.38284
H         -0.73852       -5.29426       -1.21873
H         -0.33650       -4.32823        0.19664
C         -4.59120       -3.12589       -4.69742
C         -4.95221       -2.11181       -3.59575
C         -5.05286       -0.71179       -4.23255
C         -6.32259       -2.46997       -2.99130
H         -4.57984       -4.14469       -4.31236
H         -5.31340       -3.08829       -5.51281
H         -3.60575       -2.91494       -5.11061
H         -5.79608       -0.70234       -5.02971
H         -5.35220        0.03418       -3.49667
H         -4.10104       -0.40648       -4.66523
H         -6.31667       -3.47328       -2.56673
H         -6.58676       -1.77292       -2.19619
H         -7.10560       -2.43165       -3.74840
C         -4.04473        4.67801        3.96969
C         -2.91170        4.19705        3.04264
C         -2.45085        5.37803        2.17127
C         -1.74281        3.71169        3.92360
H         -4.42306        3.85872        4.58082
H         -3.68829        5.45737        4.64317
H         -4.87309        5.09503        3.39751
H         -1.64183        5.08047        1.50627
H         -3.27057        5.74398        1.55329
H         -2.09507        6.20405        2.78680
H         -2.03569        2.83544        4.50151
H         -0.87453        3.44038        3.32517
H         -1.43134        4.48870        4.62132
C         -7.50180        1.98674        1.97913
C         -6.56342        1.15040        1.08869
C         -6.65537       -0.32349        1.52771
C         -7.02735        1.28330       -0.37396
H         -7.47940        3.03834        1.69378
H         -8.53160        1.64188        1.88636
H         -7.22079        1.90635        3.02904
H         -7.68388       -0.68107        1.48268
H         -6.05134       -0.96644        0.88834
H         -6.29989       -0.44242        2.55099
H         -6.95020        2.31715       -0.70993
H         -6.42035        0.67007       -1.03887
H         -8.06470        0.96804       -0.48482
C          0.90630       -4.11189        3.49221
C          2.31738       -4.45963        2.97322
C          3.17461       -4.88271        4.18289
C          2.22943       -5.63320        1.98387
H          0.49903       -4.92752        4.08935
H          0.93414       -3.21830        4.11545
H          0.21027       -3.93108        2.67530
H          2.68588       -5.67939        4.74367
H          4.14806       -5.25859        3.86996
H          3.32993       -4.04344        4.86063
H          3.22151       -5.91814        1.63405
H          1.77002       -6.50511        2.44916
H          1.63652       -5.36210        1.11151
C          6.97265       -1.50350        0.43729
C          6.31256       -1.44641        1.82747
C          7.07524       -2.39392        2.77277
C          6.40956       -0.01434        2.38731
H          8.02788       -1.23705        0.49447
H          6.89907       -2.50629        0.01694
H          6.49217       -0.81496       -0.25660
H          6.64736       -2.37552        3.77494
H          7.05120       -3.41927        2.40423
H          8.12105       -2.09810        2.85522
H          5.93469        0.70545        1.72151
H          5.91691        0.05311        3.35703
H          7.44952        0.28586        2.51409
C          1.18001        4.78155        1.01693
C          2.49532        4.86153        0.21826
C          2.32586        5.92285       -0.88529
C          3.62796        5.27868        1.17232
H          0.36053        4.45286        0.37872
H          1.26775        4.08818        1.85298
H          0.91474        5.75632        1.42593
H          3.25211        6.07646       -1.43723
H          1.55908        5.61866       -1.59674
H          2.03051        6.88227       -0.46092
H          3.76680        4.53151        1.95356
H          4.57228        5.38406        0.63913
H          3.40429        6.23175        1.65128
C          6.79182        2.38967       -1.90097
C          5.54580        2.14606       -2.77143
C          5.46075        3.22761       -3.86570
C          5.68487        0.77280       -3.45770
H          6.86413        1.64033       -1.11296
H          7.70202        2.34136       -2.49841
H          6.75316        3.36959       -1.42611
H          5.43772        4.22875       -3.43762
H          6.32183        3.17441       -4.53173
H          4.56242        3.10059       -4.46838
H          5.81959       -0.02252       -2.72513
H          4.80480        0.54354       -4.05792
H          6.55085        0.75714       -4.11931
H         -1.51830        0.25244       -4.44655
H          2.59961        1.84340       -4.46872
H         -1.88527       -1.33323       -5.11764
H         -0.45108       -0.46443       -5.65688
H          1.26979        1.26890       -5.47333
H          1.98149        0.21151       -4.25049
