105
-153.06578946
Cl        -0.54942        1.90587       -3.00984
Pd         0.22373        1.30889       -0.98138
P          1.34367        0.52667        0.94427
N          1.19964       -1.04406        1.72910
C          0.22052       -2.02447        1.55997
C         -0.17373       -2.48712        0.27865
C         -1.15959       -3.49082        0.18138
C         -1.54922       -4.00297       -1.18497
C         -2.35701       -5.30990       -1.17170
C         -3.43994       -5.27241       -0.08981
C         -2.81069       -5.08026        1.29790
C         -1.73647       -4.02224        1.33841
C         -1.29905       -3.58366        2.58180
C         -0.33646       -2.61534        2.69335
H         -0.01659       -2.27857        3.66398
H         -1.73486       -4.01236        3.46837
H         -3.58433       -4.82635        2.03396
H         -4.12976       -4.44419       -0.29534
H         -2.79929       -5.50661       -2.15857
H         -2.12839       -3.22274       -1.69180
C          0.58943       -2.09087       -0.92923
C         -0.08452       -1.50349       -2.03444
C          0.62568       -1.31233       -3.22325
C          1.94696       -1.66208       -3.32142
C          2.62515       -2.23120       -2.25070
C          4.06710       -2.62988       -2.45756
C          4.80526       -3.03372       -1.17113
C          3.90839       -3.89341       -0.27685
C          2.63677       -3.12500        0.11067
C          1.94614       -2.45088       -1.05010
H          1.92732       -3.79912        0.60665
H          4.45302       -4.22802        0.61743
H          5.10468       -2.13304       -0.62116
H          4.59307       -1.80518       -2.95461
H          2.47670       -1.49957       -4.24487
H          0.12445       -0.85498       -4.05821
N         -1.41121       -1.05500       -1.95384
P         -1.78935        0.13613       -0.71021
C         -2.50616       -0.45225        0.81233
C         -3.55433       -1.33959        0.79099
C         -4.14519       -1.72462        1.98121
C         -3.69847       -1.20912        3.19129
C         -2.64630       -0.30267        3.18554
C         -2.05775        0.08126        1.99469
H         -1.24225        0.78410        1.97850
H         -2.28633        0.09609        4.11837
C         -4.30491       -1.65757        4.47478
H         -4.95621       -2.43257        1.97694
H         -3.90261       -1.72565       -0.15385
C         -2.87922        1.42924       -1.31399
C         -2.81621        2.67609       -0.73755
C         -3.65184        3.68236       -1.18707
C         -4.55441        3.44455       -2.21486
C         -4.61667        2.17243       -2.76790
C         -3.77961        1.16721       -2.31833
H         -3.83200        0.17776       -2.74269
H         -5.32510        1.97398       -3.55393
C         -5.46800        4.52211       -2.68569
H         -3.60592        4.66135       -0.74152
H         -2.11303        2.85848        0.06042
H         -1.75701       -0.62813       -2.80349
H          1.66162       -0.97232        2.62684
C          0.96524        1.81570        2.14331
C          0.58447        1.46988        3.41929
C          0.26465        2.45298        4.33757
C          0.33472        3.79446        3.98840
C          0.72047        4.12667        2.69723
C          1.03731        3.14001        1.78355
H          1.34503        3.39685        0.78438
H          0.76896        5.16348        2.41114
C         -0.03847        4.85385        4.96612
H         -0.04736        2.18278        5.33200
H          0.51497        0.43012        3.69089
C          3.09056        0.66336        0.55214
C          3.55385        0.41055       -0.71553
C          4.90424        0.52029       -0.99073
C          5.80388        0.85688        0.01073
C          5.31781        1.10515        1.28723
C          3.96424        1.00697        1.55626
H          3.58341        1.20084        2.54675
H          6.00501        1.38124        2.06862
C          7.25571        0.99000       -0.29118
H          5.26794        0.35023       -1.98948
H          2.85201        0.14781       -1.49049
Cl         1.96496        2.72774       -1.20179
H         -2.37914       -6.02780        1.64195
H         -1.68159       -6.15287       -0.97899
H         -4.05466       -6.18320       -0.12010
H         -0.64004       -4.13077       -1.78593
H          3.63044       -4.80920       -0.81350
H          2.88713       -2.35983        0.85417
H          4.09442       -3.46214       -3.17114
H          5.74176       -3.55949       -1.40507
H         -4.24028       -0.87765        5.23478
H         -5.35885       -1.90788        4.34596
H         -3.79289       -2.54224        4.85586
H         -5.72527        4.38835       -3.73733
H         -6.39436        4.52400       -2.10968
H         -5.00441        5.50409       -2.58164
H          0.18242        4.54210        5.98794
H          0.51129        5.77669        4.77589
H         -1.10427        5.07832        4.90551
H          7.86208        0.80539        0.59666
H          7.56446        0.27676       -1.05683
H          7.48500        1.99314       -0.65310
