87
-129.18593488
P         -1.52232       -0.27249       -0.37236
P          1.68469        0.37085        0.06848
C         -1.18240        0.97966       -1.61511
C          1.54390       -0.70243       -1.38106
C         -0.13247        0.78973       -2.50463
C          0.12972        1.78481       -3.46770
C         -0.67505        2.91147       -3.50959
C         -1.71628        3.07684       -2.62069
C         -1.96665        2.10554       -1.67179
C          2.27470       -1.86608       -1.33075
C          2.16395       -2.80947       -2.33302
C          1.29901       -2.58897       -3.38199
C          0.54358       -1.43139       -3.45153
C          0.67737       -0.45593       -2.44431
Cl         1.10576        0.05933        3.29976
Cl        -1.53400       -1.66674        2.53802
H         -2.32953        3.96202       -2.66278
H         -2.78101        2.22402       -0.97669
H          2.93244       -2.04339       -0.49579
H          2.73990       -3.71917       -2.28647
H         -0.47215        3.66964       -4.24684
H          1.19443       -3.32827       -4.15798
C         -2.25387       -4.27802       -2.38340
C         -1.33630       -4.19919       -1.34468
C         -1.14699       -2.97303       -0.71935
C         -1.83616       -1.86057       -1.14239
C         -2.73613       -1.94353       -2.17869
C         -2.95065       -3.16031       -2.79929
H         -2.41778       -5.22613       -2.86656
C         -0.59081       -5.40195       -0.88472
H         -0.44971       -2.89090        0.09722
H         -3.25673       -1.05574       -2.50223
H         -3.65593       -3.23387       -3.61079
C         -5.08788        1.02492        2.15339
C         -5.16871       -0.12723        1.39634
C         -4.09228       -0.52279        0.62509
C         -2.94700        0.23781        0.61173
C         -2.86346        1.38358        1.36865
C         -3.93155        1.79277        2.15659
H         -5.92598        1.33556        2.75365
H         -6.06841       -0.72036        1.40942
H         -4.13750       -1.42616        0.03942
H         -1.96180        1.97092        1.34727
C         -3.83665        3.04270        2.95875
C          5.65226       -0.35320        2.18292
C          5.48077        0.77088        1.39949
C          4.27394        0.98926        0.76176
C          3.24810        0.08560        0.91372
C          3.41835       -1.03625        1.69200
C          4.62635       -1.27555        2.33556
H          6.58797       -0.52074        2.68857
H          6.28490        1.47969        1.28802
H          4.12451        1.86482        0.15125
H          2.60075       -1.72635        1.82016
C          4.78990       -2.47004        3.20793
C          0.94134        4.80612       -0.57929
C          1.79252        4.12865       -1.43054
C          2.03705        2.78219       -1.23466
C          1.42552        2.12750       -0.19201
C          0.60625        2.80764        0.67968
C          0.34444        4.15929        0.49423
H          0.73553        5.85040       -0.74157
H          2.25504        4.64493       -2.25569
H          2.68407        2.23294       -1.89990
H          0.19127        2.29178        1.52862
C         -0.59038        4.87946        1.40064
Pd        -0.03539       -0.41583        1.43055
C          1.25504        1.65600       -4.43456
C         -0.40260       -1.25361       -4.58835
H          1.93964        0.85696       -4.14788
H          0.88347        1.43868       -5.43671
H          1.83196        2.58059       -4.48463
H          0.13135       -0.98807       -5.50150
H         -0.95654       -2.17386       -4.77919
H         -1.13274       -0.47014       -4.38305
H         -1.11934       -5.89617       -0.06844
H         -0.46734       -6.12327       -1.69376
H          0.40418       -5.13226       -0.52723
H         -4.58069        3.05929        3.75627
H         -2.85309        3.13423        3.42201
H         -3.99663        3.91991        2.33023
H          4.38953       -2.27727        4.20420
H          4.26294       -3.33147        2.79497
H          5.84084       -2.74293        3.31325
H         -1.61562        4.80609        1.03494
H         -0.56115        4.46106        2.40775
H         -0.33310        5.93702        1.47343
