111
-148.56061316
P         -2.56089       -2.19349       -0.58887
P          0.02176       -0.37975       -0.46397
C         -1.58366       -1.92556       -2.09087
C         -0.44480       -1.15308       -2.02534
C         -3.26555       -3.90286       -0.52056
C         -2.52819       -4.76070        0.48449
C         -1.97540       -2.47505       -3.29497
H         -2.87928       -3.05955       -3.34587
C         -1.21375       -2.25919       -4.43047
H         -1.51763       -2.68908       -5.37094
C         -0.06692       -1.49181       -4.36044
H          0.52607       -1.32355       -5.24432
C          0.31618       -0.93283       -3.15455
H          1.20527       -0.32610       -3.08560
Pd        -1.25006       -1.45222        1.15197
Cl        -2.74966       -2.21014        2.63415
Cl         0.14946       -0.63532        2.70623
C         -4.74616       -3.64522       -0.18240
C         -4.11408       -1.18988       -0.55108
H         -2.59407       -4.32923        1.48437
H         -2.94665       -5.76876        0.53261
H         -1.46810       -4.84414        0.23318
H         -4.87106       -3.69200        0.90829
H         -5.37829       -4.45028       -0.58714
H         -4.15479       -0.72999        0.44523
C         -5.21787       -2.25452       -0.69632
C         -4.10957       -0.13328       -1.63552
H         -3.17152       -4.32387       -1.52941
H         -5.49714       -2.33195       -1.75611
H         -6.13134       -1.93208       -0.17381
H         -4.02321       -0.59277       -2.62189
H         -5.02947        0.45595       -1.62383
H         -3.26584        0.55138       -1.52102
C         -1.14475        4.02711       -0.42533
C         -0.19036        3.55160       -1.36034
C          0.14483        2.20770       -1.32966
C         -0.48266        1.34060       -0.47359
C         -1.48626        1.77672        0.35179
C         -1.86744        3.10704        0.37565
O         -1.34718        5.42334       -0.26150
C          0.50175        4.47091       -2.37899
H          0.91944        1.82035       -1.96872
H         -1.96178        1.06702        1.00388
C         -3.01842        3.53637        1.29892
C          4.45573       -0.74942        0.50641
C          3.72723        0.39439        0.92091
C          2.37894        0.45825        0.61293
C          1.77359       -0.52052       -0.12991
C          2.49344       -1.58113       -0.61433
C          3.84829       -1.70256       -0.35135
O          5.77825       -0.95947        0.97967
C          4.35851        1.53826        1.72935
H          1.77095        1.27208        0.96937
H          1.97676       -2.32085       -1.20086
C          4.62955       -2.86947       -0.97601
C         -0.42003        5.63040       -2.79875
C          1.80018        5.02029       -1.76918
C          0.85291        3.68901       -3.66546
C         -4.03995        2.38891        1.47190
C         -2.45095        3.89733        2.68002
C         -3.78585        4.73336        0.70909
C         -0.48668        6.02278        0.69922
H          0.04685        6.24292       -3.56968
H         -1.36141        5.24867       -3.19252
H         -0.64960        6.27992       -1.95789
H          1.60244        5.58269       -0.85972
H          2.47937        4.20717       -1.51525
H          2.31189        5.68016       -2.46929
H          1.63051        2.94763       -3.48803
H         -0.02500        3.17787       -4.05984
H          1.22384        4.36208       -4.43812
H         -4.91488        2.73057        2.02436
H         -4.37923        2.02322        0.50349
H         -3.61929        1.55264        2.02821
H         -3.24566        4.19620        3.36299
H         -1.93237        3.04444        3.11745
H         -1.73998        4.71721        2.61211
H         -4.63960        4.99731        1.33273
H         -3.15125        5.61263        0.63167
H         -4.15439        4.49836       -0.28890
H          0.11501        6.79533        0.22078
H         -1.08319        6.49182        1.48155
H          0.16994        5.27302        1.14259
C          5.84694       -1.69842        2.19279
C          5.84199        1.72606        1.36421
C          3.64802        2.87745        1.42488
C          4.21344        1.23592        3.22851
C          6.09279       -2.47527       -1.24807
C          4.57416       -4.08172       -0.03425
C          4.01309       -3.27180       -2.33547
H          6.42911        0.84867        1.62322
H          5.95458        1.89916        0.29446
H          6.27087        2.57709        1.89270
H          4.17077        3.70912        1.89669
H          3.62135        3.06466        0.35206
H          2.62605        2.88891        1.80085
H          4.71725        0.30968        3.49417
H          4.63939        2.03690        3.83212
H          3.16314        1.12979        3.49918
H          6.62262       -2.25411       -0.32492
H          6.62871       -3.28023       -1.75037
H          6.14020       -1.58957       -1.88074
H          5.01979       -3.85217        0.93060
H          3.54268       -4.38624        0.14142
H          5.10950       -4.93069       -0.45867
H          3.92123       -2.40601       -2.99084
H          3.02680       -3.71756       -2.21572
H          4.63733       -4.00877       -2.84027
H          6.44653       -2.59576        2.04071
H          6.32703       -1.09485        2.96282
H          4.84629       -1.98027        2.52305
