72
-108.39978597
Cl         1.69468       -1.06403        2.58664
Cl        -0.92188        0.66635        2.86212
P         -1.06598        1.17655       -0.26837
P          2.24114       -0.14881       -0.38907
C          3.28301        1.40790       -0.07226
C          3.64009        1.47410        1.41419
C          4.54852        1.36923       -0.92137
C          3.28755       -1.73550       -0.24555
C          4.09985       -1.96128       -1.52768
C          1.41844       -0.33453       -2.07794
C          1.48316        0.90202       -2.94867
C         -1.15130       -0.14708       -1.50229
C         -0.00004       -0.87685       -2.02294
C         -0.52483       -1.93406       -2.88872
C         -1.97178       -1.82904       -2.92133
C         -2.35757       -0.72076       -2.06751
C          2.47003        2.65005       -0.41341
H          2.74664        1.46924        2.03850
H          4.26951        0.64521        1.72604
H          5.10584        2.30202       -0.82084
H          4.31631        1.23623       -1.97730
C          4.24197       -1.69737        0.94428
H          4.61724       -1.05864       -1.84634
H          3.47730       -2.30438       -2.35312
H          2.01768       -1.10924       -2.56485
H          1.07504        0.70289       -3.94188
H          2.50364        1.26123       -3.08097
H          0.88508        1.70310       -2.51989
H          0.08007       -2.61210       -3.49363
H         -2.64974       -2.45701       -3.50373
Pd         0.51685        0.23453        1.18456
H         -3.37343       -0.38517       -1.84754
C          2.29727       -2.87675       -0.06866
H          4.85372       -2.73422       -1.36929
H          3.72166       -1.44832        1.86678
H          4.70750       -2.67321        1.08996
H          5.04857       -0.98314        0.78990
H          2.80474       -3.84289       -0.10189
H          1.79642       -2.80329        0.89508
H          1.54239       -2.86597       -0.85601
H          4.18779        2.39156        1.63564
H          5.21358        0.56419       -0.61384
H          2.27843        2.73634       -1.47986
H          1.51714        2.64772        0.11344
H          3.00321        3.55429       -0.11556
C         -2.68540        1.31773        0.51196
C         -3.03841        2.39166        1.28911
C         -4.34359        2.16432        1.72812
C         -4.73217        0.95945        1.19455
O         -3.72342        0.42989        0.44194
H         -2.41053        3.23988        1.51302
H         -4.92972        2.80715        2.36436
H         -5.69415        0.48377        1.34044
C         -0.74656        2.79217       -0.99358
C         -1.15440        3.13190       -2.25937
C         -0.75887        4.45339       -2.47302
C         -0.13160        4.86575       -1.32252
O         -0.11829        3.85461       -0.40412
H         -1.68469        2.49078       -2.94593
H         -0.91976        5.03759       -3.36430
H          0.29510        5.84635       -1.15168
Fe        -1.32841       -2.10077       -0.99560
C         -2.21946       -3.88796       -0.54776
C         -3.01077       -2.77794       -0.04671
C         -2.19198       -2.01926        0.87830
C         -0.89309       -2.65201        0.93964
C         -0.90554       -3.80870        0.06369
H         -2.56024       -4.65866       -1.24301
H         -4.05176       -2.56304       -0.29901
H         -2.49076       -1.12107        1.42150
H         -0.07701       -2.33261        1.58978
H         -0.09240       -4.52521       -0.07219
