171
-217.84144488
P         -1.48343        0.15012       -0.37919
P          1.67066       -0.62625        0.38107
C         -0.53939        0.91120       -1.71162
C          1.05095       -1.73689       -0.90239
C          0.37172        0.13295       -2.41432
C          1.14049        0.73025       -3.43172
C          0.92742        2.06472       -3.73818
C         -0.00020        2.81541       -3.04588
C         -0.73112        2.23306       -2.02938
C          1.09042       -3.07082       -0.57087
C          0.58286       -4.02011       -1.43670
C          0.02186       -3.61977       -2.63010
C         -0.04335       -2.28054       -2.97588
C          0.48929       -1.31427       -2.10148
Cl         0.73558       -0.72195        3.49181
Cl        -2.28339       -1.28850        2.49779
C         -0.69802       -1.89832       -4.25726
C          2.15515       -0.05436       -4.18761
H         -0.15133        3.85333       -3.29377
H         -1.46030        2.80931       -1.48647
H          1.51239       -3.36609        0.37867
H          0.61714       -5.06506       -1.17514
H          1.49215        2.51404       -4.53713
H         -0.38723       -4.35239       -3.30534
C         -4.13668       -3.03248       -2.21070
C         -3.45821       -3.32813       -1.03525
C         -2.66843       -2.33373       -0.47474
C         -2.54586       -1.11145       -1.08507
C         -3.20178       -0.84569       -2.26247
C         -4.02255       -1.80302       -2.84755
H         -4.78351       -3.77856       -2.63373
H         -2.15220       -2.50166        0.45264
H         -3.05046        0.10908       -2.73480
C         -4.18720        3.33350        1.44061
C         -3.24803        2.73161        2.26644
C         -2.41526        1.77073        1.71019
C         -2.53854        1.40584        0.38988
C         -3.49506        1.99624       -0.40042
C         -4.33190        2.98286        0.10550
H         -4.82679        4.09377        1.84993
H         -1.67190        1.29619        2.32186
H         -3.58087        1.68680       -1.42634
C          5.64100       -2.32763        1.75967
C          4.75060       -1.87452        2.72626
C          3.53011       -1.37440        2.29737
C          3.21554       -1.33693        0.96382
C          4.10406       -1.79435        0.02140
C          5.34160       -2.29836        0.40292
H          6.59546       -2.71461        2.06331
H          2.80715       -1.02168        3.00978
H          3.81926       -1.75721       -1.01645
C          2.75846        3.66896       -0.58317
C          1.67457        3.44545        0.25829
C          1.31795        2.12872        0.52125
C          2.02608        1.08875       -0.03530
C          3.10576        1.33145       -0.84846
C          3.49805        2.63216       -1.13690
H          3.05414        4.67723       -0.80362
H          0.49043        1.91582        1.17420
H          3.65248        0.49365       -1.24376
Pd        -0.35826       -0.64955        1.53712
C         -3.17022       -5.79291       -1.39586
C         -3.60270       -4.71202       -0.38798
C         -5.07155       -4.93176        0.01545
C         -2.72262       -4.84328        0.87132
H         -2.13763       -5.63681       -1.70677
H         -3.24336       -6.78757       -0.95649
H         -3.79440       -5.77640       -2.28841
H         -5.20380       -5.90136        0.49517
H         -5.39677       -4.16150        0.71452
H         -5.72951       -4.89555       -0.85206
H         -3.01396       -4.11910        1.63177
H         -2.81898       -5.83654        1.30926
H         -1.67071       -4.68819        0.63210
C         -4.71365       -2.65651       -5.12208
C         -4.84737       -1.50328       -4.10823
C         -4.37956       -0.20443       -4.79511
C         -6.32306       -1.34422       -3.70244
H         -3.67136       -2.81681       -5.39442
H         -5.10448       -3.59071       -4.72169
H         -5.26679       -2.43533       -6.03480
H         -4.53439        0.66138       -4.15221
H         -3.32239       -0.25730       -5.05394
H         -4.93827       -0.03042       -5.71460
H         -6.94565       -1.12092       -4.56863
H         -6.70166       -2.25594       -3.24108
H         -6.43948       -0.53335       -2.98351
C         -2.11020        2.28649        4.50135
C         -3.17001        3.11798        3.75049
C         -4.53730        2.86308        4.41201
C         -2.80452        4.60776        3.87109
H         -2.33479        1.22152        4.44399
H         -1.11495        2.45009        4.09070
H         -2.07888        2.56066        5.55559
H         -4.82340        1.81646        4.30944
H         -4.50723        3.10248        5.47481
H         -5.31863        3.46999        3.95629
H         -1.84571        4.80810        3.39538
H         -3.55283        5.23871        3.39282
H         -2.73176        4.90856        4.91606
C         -5.40988        3.11616       -2.19628
C         -5.38031        3.68889       -0.76519
C         -5.03999        5.18812       -0.84475
C         -6.77489        3.50188       -0.13961
H         -4.44912        3.24948       -2.69340
H         -5.65113        2.05340       -2.18684
H         -6.16477        3.62030       -2.79949
H         -5.05217        5.64885        0.14242
H         -4.04694        5.33472       -1.26954
H         -5.75736        5.71887       -1.47043
H         -7.54350        3.97220       -0.75270
H         -7.01625        2.44292       -0.04916
H         -6.82702        3.94321        0.85487
C          4.00997       -2.77102        4.94696
C          5.06246       -1.90528        4.22915
C          5.01677       -0.46966        4.78478
C          6.45721       -2.49573        4.51130
H          4.00930       -3.78529        4.54841
H          4.21437       -2.82774        6.01589
H          3.00812       -2.36213        4.82113
H          4.02967       -0.02707        4.65609
H          5.25205       -0.45523        5.84879
H          5.73766        0.16534        4.27021
H          7.23803       -1.90214        4.03616
H          6.66089       -2.51137        5.58195
H          6.53043       -3.52026        4.14696
C          5.83372       -2.68221       -2.06478
C          6.36795       -2.79910       -0.62310
C          6.68967       -4.27815       -0.34146
C          7.65120       -1.95571       -0.51009
H          6.57141       -3.04358       -2.78110
H          4.92824       -3.27427       -2.19707
H          5.60956       -1.64621       -2.31807
H          5.78587       -4.88489       -0.39482
H          7.40155       -4.66788       -1.06890
H          7.12192       -4.40821        0.64995
H          8.09858       -2.04581        0.47907
H          8.39325       -2.27432       -1.24198
H          7.43558       -0.90180       -0.68481
C          1.00384        4.40116        2.47261
C          0.92145        4.59463        0.94712
C         -0.55020        4.59319        0.50157
C          1.52932        5.96742        0.59953
H          2.04277        4.36809        2.79998
H          0.51135        5.21868        2.99834
H          0.52888        3.47052        2.77846
H         -1.03008        3.64678        0.74041
H         -1.11103        5.38584        0.99620
H         -0.62649        4.75108       -0.57355
H          2.57286        6.02428        0.90871
H          1.47283        6.16197       -0.47135
H          0.99091        6.76752        1.10750
C          5.71861        3.79812       -1.17156
C          4.73586        2.94106       -1.99181
C          4.30780        3.70921       -3.25401
C          5.46540        1.65254       -2.42147
H          6.00705        3.28159       -0.25622
H          6.62412        4.00592       -1.74140
H          5.27613        4.75337       -0.89195
H          3.80067        4.63894       -2.99854
H          5.17098        3.95683       -3.87160
H          3.62610        3.10993       -3.85530
H          6.34795        1.88707       -3.01640
H          5.79447        1.08187       -1.55320
H          4.82039        1.01745       -3.02714
H         -1.65806       -2.40432       -4.36164
H          1.71667       -0.50220       -5.08014
H         -0.07830       -2.17674       -5.11080
H         -0.88509       -0.82526       -4.30952
H          2.56914       -0.85662       -3.57463
H          2.98404        0.57877       -4.50691
