115
-277.94045745
P         -1.70836       -0.54697        0.00608
P          1.99256        0.37778       -0.13775
C         -2.08120       -2.29355        0.21468
C         -1.06516       -3.20031        0.42527
H         -0.07591       -2.86006        0.68224
C         -1.30327       -4.54479        0.22967
H         -0.49988       -5.26334        0.28080
C         -2.54945       -4.97809       -0.19250
C         -3.59435       -4.06915       -0.27382
H         -4.55829       -4.40853       -0.61765
C         -3.36190       -2.72434       -0.06199
H         -4.14968       -2.00315       -0.21502
C         -3.12173        0.37495        0.65717
C         -3.92560        1.04302       -0.23823
H         -3.68474        1.02875       -1.28873
C         -5.04209        1.71873        0.20746
H         -5.68690        2.23800       -0.48351
C         -5.36305        1.72751        1.55130
C         -4.55747        1.04782        2.44285
H         -4.82981        1.04518        3.48667
C         -3.43979        0.37610        1.99492
H         -2.81734       -0.16193        2.69193
C         -1.50415       -0.10186       -1.75160
C         -0.96963        1.16615       -1.87768
H         -0.66835        1.69609       -0.99004
C         -0.67161        1.70609       -3.12819
C         -1.13682        1.03053       -4.25028
H         -0.95580        1.44524       -5.22779
C         -1.67533       -0.23523       -4.13243
H         -1.90958       -0.79397       -5.02273
C         -1.75861       -0.87318       -2.89496
C          1.67960       -0.14205       -1.85827
C          1.12671       -1.40909       -1.90369
H          0.86483       -1.89886       -0.98050
C          0.75020       -1.99388       -3.11181
C          1.14280       -1.35993       -4.28490
H          0.89819       -1.80836       -5.23323
C          1.68551       -0.09095       -4.24798
H          1.85797        0.43581       -5.17128
C          1.85172        0.59042       -3.04224
C         -1.76654       -2.38661       -2.89894
H         -2.47596       -2.74627       -3.65302
H         -2.17937       -2.74940       -1.96122
C         -0.34885       -3.02211       -3.14121
H         -0.13704       -3.80363       -2.40372
H         -0.32534       -3.54314       -4.10487
C          0.41991        2.73305       -3.26175
H          0.25393        3.53185       -2.53094
H          0.32721        3.22988       -4.23400
C          1.85334        2.10414       -3.10116
H          2.50298        2.43321       -3.92001
H          2.33384        2.49988       -2.21034
C          2.26123        2.14839        0.01847
C          1.20758        2.99130        0.29639
C          3.49086        2.65581       -0.34615
C          1.34734        4.34524        0.07589
C          3.62827        4.01227       -0.56747
C          2.53776        4.85371       -0.42055
C          3.46687       -0.46119        0.49073
C          3.84779       -1.65835       -0.07143
C          4.22013        0.09331        1.49962
C          4.98343       -2.30234        0.37535
H          3.26986       -2.08090       -0.87570
C          5.35327       -0.55121        1.94938
H          3.91872        1.03009        1.94054
C          5.74022       -1.75494        1.39170
H          5.30984       -3.23034       -0.06683
H          5.95657       -0.12326        2.73410
Pd         0.21764       -0.16521        1.30789
Cl        -1.08825       -1.13655        2.86510
Cl         1.72622        0.52203        2.82740
H          4.54290        4.41869       -0.97057
H          4.30770        1.98389       -0.55942
H          0.50275        5.00694        0.18078
H          0.26465        2.59197        0.63100
C         -4.06686       -6.89086       -0.88394
C         -2.62284       -6.31170       -0.89390
C         -2.08254       -6.06012       -2.33818
F         -4.49818       -6.88784        0.38606
F         -4.86621       -6.12082       -1.63500
F         -4.04029       -8.14530       -1.36043
F         -1.81779       -7.19341       -0.29624
F         -2.21818       -7.16955       -3.07673
F         -2.75236       -5.03497       -2.88311
F         -0.79079       -5.72319       -2.22865
C         -6.74589        3.82482        1.42044
C         -6.61925        2.40204        2.04087
C         -7.83483        1.49502        1.69548
F         -5.59189        4.46958        1.64889
F         -6.95454        3.72238        0.10040
F         -7.76274        4.47378        2.00856
F         -6.57753        2.54130        3.36878
F         -7.85545        1.26981        0.37350
F         -7.66809        0.33529        2.34909
F         -8.96777        2.09361        2.09271
C          8.20526       -1.73155        1.08502
C          7.02059       -2.43272        1.80924
C          7.17281       -2.40886        3.35887
F          8.02275       -1.89774       -0.23363
F          8.19093       -0.42365        1.38183
F          9.36139       -2.29327        1.46861
F          7.00702       -3.71190        1.42425
F          6.04018       -2.89948        3.88422
F          8.21585       -3.17627        3.71126
F          7.35643       -1.14754        3.77339
C          1.92788        5.91435       -2.54178
C          2.55411        6.18051       -1.13645
C          1.79630        7.27493       -0.33102
F          1.96404        7.03602       -3.27359
F          2.64870        4.94665       -3.12642
F          0.67036        5.48238       -2.38704
F          3.81055        6.59548       -1.31577
F          1.93300        8.45359       -0.95827
F          0.50087        6.94758       -0.22685
F          2.34847        7.33449        0.89016
