58
-89.86666222
P          1.49858       -0.04472        0.74242
C          2.91774        1.06113        0.71039
C          2.75100        2.42717        0.73371
C          3.85828        3.25568        0.71235
C          5.12621        2.71041        0.67143
C          5.28983        1.33956        0.65097
C          4.18020        0.51366        0.67104
H          4.29169       -0.55878        0.65184
H          1.75739        2.84449        0.75108
C          1.95308       -1.62810        0.02874
C          2.17380       -2.73816        0.81196
C          2.53178       -3.93481        0.21760
C          2.67212       -4.00898       -1.15451
C          2.46380       -2.88876       -1.93453
C          2.10743       -1.69417       -1.33695
H          1.95599       -0.80123       -1.92312
H          2.06598       -2.66802        1.88195
C          0.94861       -0.16334        2.49294
C          0.00791        0.98430        2.82852
C         -1.44642        0.72345        2.46329
P         -1.76832        0.17064        0.73085
C         -3.54404        0.35405        0.47591
C         -4.38033       -0.43847        1.23049
C         -5.75244       -0.33110        1.08481
C         -6.27968        0.57109        0.18240
C         -5.43901        1.36183       -0.57499
C         -4.07028        1.24916       -0.42570
H         -3.40373        1.84751       -1.02169
H         -3.95568       -1.14318        1.92810
C         -1.42700       -1.58131        0.48038
C         -1.29284       -2.03131       -0.81349
C         -1.03671       -3.36822       -1.05836
C         -0.92672       -4.25029       -0.00280
C         -1.08170       -3.79965        1.29269
C         -1.33890       -2.46265        1.53331
H         -1.48926       -2.11410        2.54133
H         -1.38936       -1.33288       -1.63006
Pd        -0.05084        0.98661       -0.64725
Cl         1.55465        1.53908       -2.12574
Cl        -1.51214        2.21244       -1.82631
H         -1.87491       -0.03973        3.11483
H         -2.04976        1.62267        2.61128
H          0.07285        1.22161        3.90215
H          0.35928        1.89046        2.31623
H          0.47692       -1.12906        2.66987
H          1.85847       -0.13735        3.09813
H          3.73009        4.32562        0.72245
H          6.27883        0.91298        0.61690
H          2.69788       -4.80896        0.82549
H          2.57947       -2.94313       -3.00445
H         -6.40710       -0.95154        1.67451
H         -5.84802        2.06323       -1.28362
H         -0.91843       -3.71782       -2.07075
H         -1.00401       -4.48975        2.11676
H          5.98922        3.35584        0.65257
H          2.94794       -4.94253       -1.61716
H         -7.34799        0.65614        0.06726
H         -0.72088       -5.29149       -0.19033
