105
-153.06737575
Cl        -1.11079        3.26452       -2.02388
Pd        -0.07790        1.75668       -0.71808
P          1.04298        0.49538        0.95943
N          0.05493       -0.80605        1.61287
C         -0.14805       -2.16874        1.36010
C          0.13540       -2.81053        0.12578
C         -0.30084       -4.13548       -0.08591
C         -0.19368       -4.74440       -1.46327
C         -1.24719       -5.83289       -1.70976
C         -1.17449       -6.88907       -0.60246
C         -1.41915       -6.26411        0.78311
C         -0.91832       -4.84675        0.94599
C         -1.13887       -4.21493        2.16318
C         -0.78219       -2.90632        2.35891
H         -0.99751       -2.42100        3.29524
H         -1.62783       -4.76153        2.95194
H         -2.49444       -6.27056        0.99912
H         -1.88620       -7.70401       -0.79541
H         -2.24521       -5.37704       -1.71349
H         -0.27561       -3.95545       -2.22119
C          0.67068       -2.03589       -1.01883
C         -0.22061       -1.16422       -1.69007
C          0.23999       -0.44617       -2.79295
C          1.52840       -0.60205       -3.23526
C          2.40358       -1.48612       -2.61270
C          3.78957       -1.65064       -3.17562
C          4.39259       -3.02308       -2.84592
C          4.32759       -3.27968       -1.33742
C          2.88400       -3.20780       -0.80448
C          1.97989       -2.21200       -1.49709
H          2.43078       -4.20039       -0.87978
H          4.94392       -2.53251       -0.82662
H          5.42503       -3.09987       -3.21561
H          4.42913       -0.85590       -2.77408
H          1.87432       -0.03689       -4.08395
H         -0.43022        0.23618       -3.28491
N         -1.53441       -1.02995       -1.22561
P         -2.09825        0.57316       -0.75549
C         -2.56477        0.64103        0.97338
C         -3.17673       -0.43840        1.56697
C         -3.37856       -0.44344        2.93550
C         -2.97738        0.63412        3.71340
C         -2.38424        1.72328        3.09131
C         -2.18364        1.72921        1.72402
H         -1.70926        2.57167        1.24627
H         -2.06145        2.55998        3.68727
C         -3.13670        0.60478        5.19345
H         -3.83414       -1.29553        3.41056
H         -3.46386       -1.28690        0.96681
C         -3.36019        1.23283       -1.83202
C         -4.14209        2.28757       -1.42731
C         -5.09541        2.80152       -2.28787
C         -5.27186        2.25829       -3.55390
C         -4.46398        1.19869       -3.94552
C         -3.51090        0.68630       -3.08327
H         -2.88298       -0.14004       -3.37618
H         -4.58285        0.78009       -4.93024
C         -6.27703        2.83186       -4.49101
H         -5.70532        3.63438       -1.98219
H         -3.99720        2.70966       -0.44552
H         -1.80853       -1.65428       -0.47993
H         -0.70126       -0.32177        2.08309
C          1.10269        1.71776        2.27956
C          1.38522        3.03757        2.02092
C          1.40302        3.95617        3.05253
C          1.13962        3.55857        4.35627
C          0.88419        2.21706        4.60523
C          0.86617        1.30129        3.56865
H          0.66264        0.26036        3.76072
H          0.69569        1.89426        5.61487
C          1.17504        4.54354        5.47239
H          1.62353        4.99046        2.85072
H          1.59860        3.34174        1.01060
C          2.73393       -0.09183        0.83500
C          3.12251       -1.00714        1.78549
C          4.44158       -1.42231        1.85022
C          5.38237       -0.91829        0.96278
C          4.97531        0.01484        0.01888
C          3.65822        0.42705       -0.03944
H          3.35354        1.18178       -0.74238
H          5.70072        0.42739       -0.66137
C          6.80689       -1.34408        1.04584
H          4.74791       -2.13677        2.59494
H          2.38844       -1.38659        2.47924
Cl         1.93316        2.68363       -1.09178
H         -0.96346       -6.88567        1.56427
H         -1.12355       -6.28864       -2.70236
H         -0.18260       -7.35829       -0.62101
H          0.80324       -5.17836       -1.59082
H          4.78501       -4.24781       -1.08971
H          2.88691       -2.98463        0.26848
H          3.76438       -1.49141       -4.26116
H          3.82911       -3.80377       -3.37231
H         -3.99289       -0.00452        5.48614
H         -2.24778        0.18787        5.66909
H         -3.29211        1.60818        5.59234
H         -5.83666        3.63140       -5.08824
H         -6.65750        2.07146       -5.17445
H         -7.12882        3.24595       -3.94971
H          2.17761        4.61211        5.89671
H          0.88575        5.53785        5.12929
H          0.48975        4.25740        6.27155
H          6.88828       -2.38395        1.36561
H          7.30213       -1.25615        0.07775
H          7.35387       -0.72794        1.76068
