58
-89.86466197
P          1.69749       -0.11455        0.82238
C          1.85552        1.67433        0.70143
C          0.74837        2.44661        0.96443
C          0.82091        3.82329        0.86157
C          2.00829        4.42093        0.48970
C          3.11579        3.64388        0.21242
C          3.03635        2.26689        0.31533
H          3.88781        1.65209        0.07701
H         -0.18436        1.96734        1.20248
C          3.22548       -0.95020        0.35894
C          4.38277       -0.63863        1.03776
C          5.56529       -1.28226        0.71892
C          5.57976       -2.24293       -0.27245
C          4.41500       -2.56480       -0.94002
C          3.23484       -1.91953       -0.61845
H          2.32072       -2.16563       -1.13362
H          4.35636        0.10300        1.82071
C          1.38064       -0.61715        2.56274
C         -0.00769       -0.31057        3.09004
C         -1.10305       -1.12462        2.41980
P         -1.60872       -0.49838        0.76657
C         -2.32066        1.15112        0.88304
C         -2.48848        1.87507       -0.27524
C         -2.99553        3.15959       -0.22498
C         -3.33751        3.71301        0.99233
C         -3.18033        2.98184        2.15307
C         -2.67289        1.69627        2.09756
H         -2.55545        1.11896        2.99971
H         -2.22101        1.42459       -1.21678
C         -2.82180       -1.66218        0.13686
C         -4.13627       -1.28007       -0.00272
C         -5.06343       -2.17713       -0.50154
C         -4.66492       -3.45041       -0.85819
C         -3.34394       -3.82832       -0.71806
C         -2.41871       -2.92897       -0.21851
H         -1.38187       -3.20668       -0.11067
H         -4.42989       -0.27998        0.27246
Pd         0.08298       -0.40427       -0.82831
Cl         1.65285        0.03002       -2.37544
Cl        -1.55210       -0.37652       -2.37774
H         -0.79189       -2.16375        2.29795
H         -2.01558       -1.14186        3.02073
H         -0.02767       -0.49884        4.17493
H         -0.21863        0.76044        2.98449
H          1.57905       -1.68955        2.61671
H          2.14995       -0.12502        3.16273
H         -0.05187        4.42371        1.05887
H          4.03974        4.10869       -0.09020
H          6.47245       -1.03478        1.24535
H          4.42444       -3.31618       -1.71246
H         -3.12119        3.72581       -1.13315
H         -3.45255        3.41226        3.10282
H         -6.09320       -1.88061       -0.61517
H         -3.03233       -4.82037       -1.00087
H          2.06807        5.49381        0.40584
H          6.50041       -2.74405       -0.52351
H         -3.73161        4.71525        1.03627
H         -5.38567       -4.14957       -1.24987
