59
-75.81273822
Cl         1.60694        0.75036        2.29118
P          1.58253       -0.07157       -0.87573
P         -1.60533       -0.09005       -0.80208
C          0.57970        0.31261       -2.37302
H          0.32293        1.37494       -2.36818
H          1.18524        0.12044       -3.26444
C         -0.65515       -0.53800       -2.32053
H         -0.39347       -1.59818       -2.26702
H         -1.29948       -0.39771       -3.19457
C          2.48445       -1.66407       -1.20202
H          2.27032       -1.88236       -2.25701
C          3.04279        1.05452       -0.67786
H          3.17594        1.18575        0.40292
C         -2.93999       -1.32850       -0.45414
H         -3.30938       -1.09993        0.55327
C         -2.73156        1.32100       -1.24673
H         -2.24806        1.86646       -2.06633
C          3.97082       -1.29320       -1.05034
H          4.31930       -1.57770       -0.05040
H          4.58463       -1.88139       -1.74908
C          4.20340        0.22680       -1.25582
H          4.29247        0.44414       -2.32922
H          5.15873        0.54369       -0.81012
C         -3.99204       -0.92997       -1.50192
H         -3.74778       -1.43952       -2.44550
H         -4.98496       -1.30935       -1.21406
C         -4.02370        0.61142       -1.72774
H         -4.87911        1.03828       -1.18597
H         -4.21523        0.83917       -2.78682
C          2.00926       -2.82451       -0.32970
H          2.49333       -3.75025       -0.67084
H          0.93844       -2.97907       -0.51500
C          2.85671        2.41222       -1.34417
H          3.81725        2.94615       -1.34343
H          2.61413        2.25874       -2.40363
C         -2.48713       -2.78335       -0.51909
H         -3.37221       -3.43083       -0.58909
H         -1.93842       -2.94842       -1.45431
C         -2.98603        2.25908       -0.06801
H         -3.85104        2.89533       -0.30271
H         -3.29598        1.65797        0.79702
C          2.25508       -2.64653        1.16300
H          1.77314       -3.43080        1.75148
H          1.87415       -1.69109        1.52184
H          3.31776       -2.67550        1.40746
C          1.79152        3.26069       -0.67033
H          0.82428        2.75968       -0.68724
H          1.66806        4.23106       -1.15652
H          2.03705        3.44448        0.37737
C         -1.64514       -3.19147        0.67959
H         -1.28861       -4.22113        0.60270
H         -2.21442       -3.10850        1.60737
H         -0.77368       -2.54661        0.78930
C         -1.80027        3.13716        0.29694
H         -1.46831        3.72862       -0.55836
H         -2.04107        3.83323        1.10370
H         -0.95195        2.54298        0.63316
Cl        -1.65128        0.06126        2.33378
Pd         0.02527        0.11090        0.84315
