111
-148.55367844
P         -2.47499       -2.16157       -0.61245
P          0.06212       -0.27516       -0.67982
C         -1.68356       -1.77864       -2.19560
C         -0.58650       -0.94546       -2.22225
C         -2.73692       -3.98221       -0.40868
C         -1.95553       -4.50537        0.77711
C         -2.16721       -2.32010       -3.36947
H         -3.01077       -2.99004       -3.33879
C         -1.56071       -2.00759       -4.57368
H         -1.93951       -2.42732       -5.49127
C         -0.47070       -1.15918       -4.60004
H          0.00133       -0.91440       -5.53732
C          0.01941       -0.62882       -3.42008
H          0.87356        0.02875       -3.42581
Pd        -1.22113       -1.15869        1.04492
Cl        -2.77960       -1.73631        2.54878
Cl         0.14253       -0.15030        2.51503
C         -4.26862       -4.11333       -0.26005
C         -4.21969       -1.56250       -0.46072
H         -0.88617       -4.30805        0.66779
H         -2.28679       -4.02288        1.69836
H         -2.08972       -5.58248        0.90243
H         -4.49841       -4.90898        0.46321
H         -4.71020       -4.44497       -1.21114
H         -4.19947       -0.70220        0.22221
C         -4.93015       -2.77453        0.17493
C         -4.79355       -1.16941       -1.80604
H         -2.38649       -4.45492       -1.33632
H         -5.99658       -2.76116       -0.09448
H         -4.89765       -2.69167        1.27134
H         -4.89219       -2.04339       -2.45190
H         -5.78653       -0.72471       -1.70528
H         -4.14934       -0.45501       -2.32211
C         -1.20775        3.99572        0.22777
C          0.15563        3.63069        0.36642
C          0.51786        2.32837        0.06772
C         -0.39507        1.43698       -0.43115
C         -1.69261        1.81279       -0.66592
C         -2.12284        3.09967       -0.38260
O         -1.66417        5.23800        0.74323
C          1.22908        4.60203        0.88102
H          1.51864        1.98128        0.25542
H         -2.37534        1.07166       -1.04461
C         -3.57961        3.48574       -0.68160
C          4.51561       -0.99113       -0.02065
C          4.09641       -0.08475       -1.02812
C          2.73756        0.12771       -1.19673
C          1.81544       -0.58292       -0.47201
C          2.21692       -1.54588        0.41667
C          3.55895       -1.79670        0.64668
O          5.88596       -1.06409        0.34567
C          5.09217        0.67442       -1.92013
H          2.38105        0.86919       -1.89029
H          1.46013       -2.08876        0.95572
C          3.94906       -2.89315        1.64982
C          0.91072        6.05152        0.47205
C          1.32480        4.48893        2.41010
C          2.60828        4.25631        0.27531
C         -3.70676        4.98513       -1.00720
C         -4.10404        2.71538       -1.91289
C         -4.45540        3.12805        0.52928
C         -2.08432        5.17955        2.10089
H          0.80056        6.12949       -0.60905
H         -0.01356        6.39881        0.92674
H          1.70536        6.72972        0.78199
H          1.57459        3.47006        2.70534
H          2.09365        5.15333        2.80360
H          0.38168        4.74783        2.88494
H          3.34561        5.01710        0.53059
H          2.98585        3.30694        0.65207
H          2.54951        4.19795       -0.81129
H         -4.72907        5.24033       -1.28514
H         -3.43545        5.60202       -0.15442
H         -3.05257        5.25439       -1.83573
H         -5.08624        3.08164       -2.21088
H         -3.43003        2.83183       -2.76117
H         -4.21062        1.65427       -1.70051
H         -4.13555        3.66437        1.41942
H         -5.49997        3.37616        0.34317
H         -4.39497        2.06188        0.74687
H         -1.96102        4.16921        2.49324
H         -1.49478        5.87604        2.69684
H         -3.13162        5.47212        2.17353
C          6.26031       -0.14983        1.36867
C          4.46977        0.96578       -3.30457
C          5.46005        2.01067       -1.25857
C          6.36179       -0.16093       -2.16723
C          4.03256       -2.28165        3.05679
C          2.89137       -4.02074        1.66579
C          5.29178       -3.54329        1.27063
H          5.21228        1.38809       -3.98129
H          4.08611        0.05166       -3.75700
H          3.65415        1.68418       -3.23714
H          6.17336        2.56479       -1.86815
H          4.57485        2.63171       -1.12975
H          5.90343        1.85780       -0.27768
H          6.90603       -0.33850       -1.24302
H          6.10639       -1.12943       -2.59587
H          7.03765        0.34694       -2.85481
H          4.29317       -3.03765        3.79696
H          4.78183       -1.49491        3.10078
H          3.07636       -1.84378        3.34265
H          2.70601       -4.39300        0.65857
H          3.22878       -4.85865        2.27541
H          1.94590       -3.68161        2.08654
H          6.10736       -2.82607        1.31645
H          5.25288       -3.94034        0.25684
H          5.53542       -4.36232        1.94690
H          7.05580        0.50023        1.00472
H          5.40419        0.45516        1.67017
H          6.63797       -0.69946        2.23066
