58
-89.86929333
P          1.51232        0.20541        0.78540
C          1.50514        1.98325        0.51468
C          1.48311        2.44493       -0.78125
C          1.47224        3.80399       -1.03238
C          1.49183        4.69504        0.02194
C          1.52972        4.22958        1.32161
C          1.53972        2.86853        1.56841
H          1.57636        2.49711        2.57930
H          1.48475        1.73189       -1.58975
C          3.13498       -0.47505        0.41901
C          4.22350        0.36718        0.40238
C          5.48025       -0.13689        0.11924
C          5.63681       -1.48304       -0.14549
C          4.54190       -2.32434       -0.12772
C          3.28665       -1.81741        0.15659
H          2.42327       -2.46290        0.15959
H          4.08395        1.41695        0.60561
C          1.09742       -0.23200        2.52732
C          0.40869       -1.58639        2.61361
C         -1.09387       -1.52787        2.38791
P         -1.59943       -0.72066        0.80817
C         -1.77106        1.06866        0.93224
C         -1.76812        1.72376        2.14218
C         -1.87539        3.10183        2.17816
C         -1.99062        3.81664        1.00269
C         -2.00470        3.15627       -0.20904
C         -1.89626        1.77808       -0.24105
H         -1.90316        1.24669       -1.18011
H         -1.69464        1.16292        3.05848
C         -3.13956       -1.45850        0.25125
C         -4.25992       -0.67686        0.08254
C         -5.44159       -1.25120       -0.34964
C         -5.49193       -2.60623       -0.61087
C         -4.36543       -3.38672       -0.44105
C         -3.18520       -2.80919       -0.00742
H         -2.29377       -3.40389        0.11634
H         -4.20556        0.37992        0.28726
Pd         0.08705       -0.74868       -0.78855
Cl         1.67882       -0.43543       -2.34487
Cl        -1.35162       -1.62516       -2.26736
H         -1.52477       -2.53204        2.38040
H         -1.59055       -0.99017        3.19681
H          0.86541       -2.26467        1.87988
H          0.60862       -2.04760        3.59355
H          2.04468       -0.22073        3.07269
H          0.47337        0.55018        2.95925
H          1.44927        4.16475       -2.04748
H          1.54864        4.92567        2.14403
H          6.33365        0.52090        0.10229
H          4.66313       -3.37388       -0.33999
H         -1.86695        3.61776        3.12427
H         -2.09239        3.71181       -1.12816
H         -6.31964       -0.64119       -0.48457
H         -4.40274       -4.44309       -0.65061
H          1.48067        5.75560       -0.16972
H          6.61463       -1.87718       -0.36961
H         -2.06785        4.89129        1.03098
H         -6.41108       -3.05490       -0.95084
