58
-89.86762936
P          1.85808       -0.19620        0.55985
C          1.53824        1.57428        0.67308
C          1.52157        2.24706        1.87332
C          1.22993        3.59847        1.89964
C          0.96083        4.27043        0.72390
C          0.98985        3.59599       -0.47982
C          1.28265        2.24506       -0.50174
H          1.30811        1.70045       -1.43297
H          1.74511        1.72376        2.78753
C          3.42923       -0.50634       -0.24956
C          4.28927        0.53498       -0.51409
C          5.49507        0.28750       -1.14496
C          5.82932       -1.00256       -1.50718
C          4.96243       -2.04403       -1.24051
C          3.75735       -1.79344       -0.60835
H          3.06437       -2.59456       -0.40382
H          4.01226        1.53720       -0.22980
C          1.84420       -1.05857        2.18936
C          0.47067       -1.53265        2.63782
C         -0.58646       -0.43613        2.65229
P         -1.39556       -0.25820        1.00541
C         -1.95814        1.42301        0.70004
C         -2.04608        2.34971        1.71421
C         -2.47015        3.63587        1.43275
C         -2.80809        3.98387        0.13966
C         -2.73120        3.04775       -0.87221
C         -2.30793        1.76333       -0.58659
H         -2.25096        1.01304       -1.35897
H         -1.78451        2.06889        2.72105
C         -2.77551       -1.40665        0.94904
C         -2.55631       -2.74939        0.74331
C         -3.62868       -3.62236        0.70384
C         -4.91298       -3.14383        0.87300
C         -5.12820       -1.79565        1.08011
C         -4.05379       -0.92505        1.11807
H         -4.20542        0.13107        1.27451
H         -1.55076       -3.10915        0.59618
Pd         0.03128       -0.68446       -0.78629
Cl         1.41023       -0.80938       -2.54783
Cl        -1.81825       -1.24113       -1.93644
H         -1.39161       -0.65448        3.35863
H         -0.15369        0.51863        2.95000
H          0.12958       -2.34532        1.98191
H          0.55476       -1.98766        3.63729
H          2.53853       -1.89847        2.10725
H          2.27939       -0.37361        2.91852
H          1.21019        4.12644        2.83891
H          0.77876        4.11730       -1.39892
H          6.16991        1.10076       -1.35588
H          5.22057       -3.04988       -1.52834
H         -2.53282        4.36657        2.22234
H         -2.99932        3.31553       -1.88092
H         -3.46118       -4.67357        0.53599
H         -6.13036       -1.42111        1.20916
H          0.72704        5.32233        0.74599
H          6.76706       -1.19657       -2.00187
H         -3.13491        4.98725       -0.07956
H         -5.74900       -3.82332        0.84003
