105
-153.07181674
Cl        -0.49910        1.96970       -2.99764
Pd         0.37670        1.15582       -1.08747
P          1.46734        0.58176        0.90470
N          1.33843       -1.00717        1.64235
C          0.28560       -1.92617        1.56072
C         -0.17425       -2.45120        0.32438
C         -1.18966       -3.42837        0.32233
C         -1.64143       -4.00644       -0.99783
C         -2.47598       -5.29113       -0.87963
C         -3.51862       -5.16670        0.23494
C         -2.83843       -4.90425        1.58698
C         -1.74042       -3.87169        1.52750
C         -1.25263       -3.36579        2.72553
C         -0.25743       -2.42431        2.74510
H          0.10816       -2.04427        3.68303
H         -1.67160       -3.72353        3.65087
H         -3.58103       -4.58748        2.33054
H         -4.20069       -4.33940        0.00235
H         -2.95745       -5.53407       -1.83743
H         -2.22024       -3.24169       -1.52832
C          0.52862       -2.13644       -0.94249
C         -0.18675       -1.53878       -2.01824
C          0.45665       -1.39970       -3.25209
C          1.75696       -1.79905       -3.41788
C          2.46892       -2.38841       -2.38044
C          3.88046       -2.84260       -2.64755
C          4.32222       -3.99048       -1.72936
C          4.03520       -3.64761       -0.26470
C          2.54382       -3.34330       -0.03371
C          1.85347       -2.57584       -1.14058
H          1.99802       -4.28220        0.11806
H          4.63779       -2.77895        0.02781
H          5.38663       -4.22303       -1.87618
H          4.55493       -1.98683       -2.52717
H          2.24224       -1.65859       -4.36885
H         -0.07240       -0.93017       -4.06276
N         -1.47820       -1.01401       -1.86096
P         -1.70163        0.16950       -0.56978
C         -2.56966       -0.45383        0.86066
C         -3.63350       -1.30727        0.69806
C         -4.34818       -1.72616        1.80617
C         -4.00789       -1.27912        3.07637
C         -2.93886       -0.40333        3.21352
C         -2.22861        0.01589        2.10369
H         -1.40542        0.70267        2.19750
H         -2.66263       -0.05500        4.19397
C         -4.74629       -1.76613        4.27382
H         -5.17418       -2.40680        1.69055
H         -3.89789       -1.64015       -0.29301
C         -2.67611        1.58053       -1.10578
C         -2.46866        2.79334       -0.49211
C         -3.21560        3.89250       -0.87420
C         -4.18382        3.77861       -1.86265
C         -4.38064        2.54342       -2.46579
C         -3.63226        1.44499       -2.08301
H         -3.79614        0.48272       -2.53976
H         -5.12306        2.44765       -3.23959
C         -4.96762        4.96805       -2.29656
H         -3.04740        4.84793       -0.40732
H         -1.71901        2.87761        0.27912
H         -1.85665       -0.56870       -2.68687
H          1.79259       -0.89791        2.53999
C          0.80333        1.85235        1.98597
C          0.61981        3.12377        1.49399
C          0.06551        4.10092        2.29964
C         -0.30571        3.81193        3.60564
C         -0.08418        2.53172        4.09470
C          0.46984        1.55607        3.28649
H          0.62091        0.55744        3.66084
H         -0.35373        2.30218        5.11150
C         -0.88921        4.86677        4.47973
H         -0.08171        5.09660        1.91727
H          0.91819        3.34931        0.48221
C          3.23023        0.85892        0.72478
C          3.85889        1.89172        1.37920
C          5.22161        2.07229        1.22787
C          5.96373        1.21568        0.42569
C          5.30867        0.18463       -0.23361
C          3.94585        0.00696       -0.07889
H          3.42357       -0.77491       -0.60449
H          5.87090       -0.47246       -0.87468
C          7.42538        1.42822        0.23706
H          5.71769        2.88489        1.73059
H          3.28283        2.55481        2.00354
Cl         2.39642        1.83747       -1.82121
H         -2.41628       -5.83884        1.97520
H         -1.81211       -6.13709       -0.66153
H         -4.15020       -6.06520        0.28111
H         -0.75830       -4.19040       -1.62266
H          4.36849       -4.46285        0.39296
H          2.42912       -2.78834        0.90340
H          3.97056       -3.14045       -3.70005
H          3.77931       -4.90424       -2.00220
H         -4.75683       -1.01308        5.06303
H         -5.78246       -2.00307        4.02839
H         -4.28075       -2.66760        4.67472
H         -4.46003        5.48993       -3.10886
H         -5.95888        4.67951       -2.64900
H         -5.10106        5.67301       -1.47480
H         -0.10679        5.38789        5.03307
H         -1.43636        5.60610        3.89309
H         -1.58484        4.43807        5.20255
H          7.61314        2.09893       -0.60245
H          7.87757        1.86781        1.12720
H          7.93773        0.48622        0.03648
