72
-108.40330135
Cl         1.75596       -0.97963        2.62701
Cl        -0.95628        0.65226        2.80286
P         -1.07641        1.17883       -0.24625
P          2.25841       -0.15451       -0.39287
C          3.28934        1.40899       -0.08179
C          3.64853        1.47977        1.40365
C          4.55233        1.37615       -0.93482
C          3.30641       -1.73739       -0.24348
C          4.10657       -1.97057       -1.53126
C          1.41520       -0.34502       -2.07144
C          1.47669        0.88778       -2.94758
C         -1.15413       -0.14658       -1.48382
C         -0.00565       -0.88355       -2.00591
C         -0.53051       -1.92943       -2.88503
C         -1.97833       -1.83271       -2.88922
C         -2.36358       -0.71156       -2.05125
C          2.46611        2.64433       -0.42248
H          2.75549        1.46608        2.02858
H          4.28640        0.65703        1.71483
H          5.10634        2.31101       -0.83521
H          4.31712        1.24291       -1.99009
C          4.27074       -1.68960        0.93785
H          4.62363       -1.06999       -1.85689
H          3.47557       -2.31417       -2.35005
H          2.00851       -1.12353       -2.55985
H          1.06372        0.68494       -3.93804
H          2.49685        1.24565       -3.08599
H          0.88086        1.69085       -2.51920
H          0.07020       -2.60758       -3.49393
H         -2.65952       -2.45772       -3.47163
Pd         0.52193        0.18741        1.16513
H         -3.37883       -0.37507       -1.82899
C          2.31686       -2.87594       -0.04662
H          4.85959       -2.74515       -1.37667
H          3.75624       -1.44165        1.86389
H          4.74360       -2.66208        1.08237
H          5.07131       -0.97058        0.77478
H          1.55368       -2.87039       -0.82606
H          2.82266       -3.84308       -0.07696
H          1.82676       -2.79280        0.92217
H          4.18746        2.40270        1.62391
H          5.22118        0.57294       -0.63072
H          2.27301        2.72892       -1.48882
H          1.51395        2.63359        0.10566
H          2.99203        3.55301       -0.12517
C         -2.70538        1.32098        0.51532
C         -3.07551        2.40656        1.26798
C         -4.38288        2.17590        1.69865
C         -4.75528        0.95727        1.18513
O         -3.73443        0.42239        0.45284
H         -2.45710        3.26433        1.48160
H         -4.98092        2.82552        2.31666
H         -5.71426        0.47562        1.33122
C         -0.74812        2.79534       -0.96724
C         -1.14218        3.13625       -2.23706
C         -0.74357        4.45764       -2.44553
C         -0.12835        4.86880       -1.28813
O         -0.12539        3.85697       -0.37040
H         -1.66597        2.49616       -2.92953
H         -0.89465        5.04258       -3.33806
H          0.29714        5.84899       -1.11203
Fe        -1.34057       -2.07580       -0.99022
C         -2.24379       -3.85870       -0.55862
C         -3.01700       -2.74925       -0.02841
C         -2.18251       -2.01447        0.90133
C         -0.88414       -2.65188        0.92083
C         -0.91853       -3.79689        0.02979
H         -2.60195       -4.61568       -1.26022
H         -4.06071       -2.52387       -0.25948
H         -2.46522       -1.12205        1.46240
H         -0.06041       -2.35688        1.57315
H         -0.11204       -4.51589       -0.13114
