171
-217.84773253
P         -1.61149        0.40714       -0.41241
P          1.63300       -0.32762       -0.23364
C         -0.83288        1.42227       -1.67540
C          1.01618       -1.23265       -1.65797
C          0.04471        0.87117       -2.60253
C          0.70394        1.72838       -3.50451
C          0.43328        3.08600       -3.47001
C         -0.46150        3.60937       -2.56127
C         -1.08491        2.77249       -1.65669
C          1.25728       -2.58385       -1.71124
C          0.76182       -3.33784       -2.75705
C          0.00813       -2.73051       -3.73877
C         -0.25012       -1.37038       -3.70166
C          0.27715       -0.59753       -2.64921
Cl         1.44953        0.38099        2.90728
Cl        -1.71892       -0.42070        2.79119
C         -1.06169       -0.74896       -4.78428
C          1.67615        1.20390       -4.50264
H         -0.67059        4.66660       -2.55318
H         -1.77321        3.17502       -0.93110
H          1.83615       -3.05131       -0.93080
H          0.96262       -4.39558       -2.80458
H          0.93424        3.73586       -4.16765
H         -0.39001       -3.31563       -4.55057
C         -3.53884       -3.43899       -1.80763
C         -2.64745       -3.47868       -0.74230
C         -2.05016       -2.28732       -0.35504
C         -2.33576       -1.11624       -1.01144
C         -3.22016       -1.09149       -2.06143
C         -3.84526       -2.26105       -2.47910
H         -4.02619       -4.34417       -2.11724
H         -1.37145       -2.26815        0.48031
H         -3.42566       -0.14942       -2.54052
C         -4.68867        2.77745        1.92423
C         -3.34295        3.07410        2.10122
C         -2.41685        2.35169        1.36012
C         -2.83016        1.36396        0.50046
C         -4.16333        1.07582        0.34751
C         -5.12486        1.78449        1.05597
H         -5.41871        3.33048        2.48624
H         -1.36235        2.54212        1.46182
H         -4.44647        0.28402       -0.32260
C          4.28969       -3.03335        2.25333
C          2.91203       -3.19485        2.33160
C          2.11806       -2.37003        1.54536
C          2.68552       -1.40083        0.75538
C          4.04769       -1.23802        0.71168
C          4.88167       -2.06012        1.45823
H          4.92205       -3.68405        2.82845
H          1.04652       -2.46702        1.55688
H          4.45523       -0.45954        0.09241
C          3.87039        3.49481       -1.15374
C          2.84024        3.52293       -0.22140
C          2.15334        2.34112        0.01755
C          2.49172        1.18840       -0.64603
C          3.51080        1.17607       -1.56630
C          4.22610        2.33734       -1.83657
H          4.42716        4.39233       -1.34626
H          1.35489        2.31590        0.73895
H          3.74552        0.25063       -2.06397
Pd        -0.09017        0.04729        1.30659
C         -0.83056       -5.09200       -0.13245
C         -2.32527       -4.76490        0.03119
C         -3.14661       -5.96266       -0.48260
C         -2.65320       -4.55421        1.52201
H         -0.55636       -5.97433        0.44550
H         -0.59466       -5.28766       -1.17768
H         -0.20663       -4.26383        0.19953
H         -2.91268       -6.86313        0.08525
H         -4.21576       -5.77669       -0.38190
H         -2.92786       -6.16836       -1.53026
H         -3.70747       -4.31130        1.65245
H         -2.43940       -5.45307        2.09997
H         -2.07078       -3.73837        1.94753
C         -6.25569       -2.68335       -3.00541
C         -4.89503       -2.27480       -3.59958
C         -4.48101       -3.28643       -4.68486
C         -5.04779       -0.88788       -4.25437
H         -6.21185       -3.67946       -2.56639
H         -6.55903       -1.98718       -2.22383
H         -7.03060       -2.68932       -3.77175
H         -3.50120       -3.04020       -5.09160
H         -4.43118       -4.29900       -4.28665
H         -5.19602       -3.28910       -5.50742
H         -5.38394       -0.14639       -3.52990
H         -4.10579       -0.54840       -4.68306
H         -5.78387       -0.91866       -5.05759
C         -3.46012        3.78540        4.50249
C         -2.91795        4.15180        3.10839
C         -3.48642        5.51178        2.66631
C         -1.38365        4.26772        3.20339
H         -3.08974        2.80834        4.81238
H         -3.14793        4.51713        5.24737
H         -4.54868        3.74809        4.50878
H         -3.12192        5.77632        1.67376
H         -4.57502        5.49137        2.62849
H         -3.19041        6.30154        3.35659
H         -0.93691        3.32150        3.50857
H         -0.95427        4.56140        2.24675
H         -1.09616        5.02069        3.93697
C         -6.88706        0.36042       -0.10350
C         -6.62425        1.48557        0.91769
C         -7.35540        2.75459        0.44287
C         -7.18009        1.04391        2.28373
H         -7.95491        0.16267       -0.19565
H         -6.51581        0.63299       -1.09126
H         -6.40573       -0.56819        0.20295
H         -8.42121        2.56592        0.31516
H         -7.24479        3.56757        1.15945
H         -6.95562        3.09378       -0.51262
H         -7.06411        1.82840        3.03062
H         -8.24074        0.80305        2.21442
H         -6.65512        0.15934        2.64391
C          0.78726       -4.06492        3.42360
C          2.30575       -4.26753        3.24766
C          2.95647       -4.19291        4.64295
C          2.55706       -5.65250        2.62855
H          0.26021       -4.20406        2.48183
H          0.37893       -4.78411        4.13337
H          0.56734       -3.06493        3.79744
H          2.49377       -4.90479        5.32630
H          4.02041       -4.42154        4.60326
H          2.84116       -3.19542        5.06663
H          2.10305       -5.72047        1.63998
H          3.62434       -5.84369        2.51977
H          2.13439       -6.44155        3.25026
C          6.85374       -0.76949        0.49781
C          6.40959       -1.91317        1.43156
C          7.03826       -3.22546        0.92873
C          6.91422       -1.60447        2.85306
H          7.93951       -0.67502        0.49020
H          6.53197       -0.95278       -0.52712
H          6.44211        0.18528        0.82465
H          6.79574       -4.05878        1.58713
H          6.67262       -3.46948       -0.06857
H          8.12402       -3.14428        0.87993
H          6.45779       -0.69036        3.23231
H          6.67097       -2.41091        3.54380
H          7.99592       -1.47169        2.86308
C          1.03668        5.22766        0.09046
C          2.44024        4.79229        0.54403
C          3.42399        5.94900        0.28387
C          2.42773        4.49824        2.05722
H          0.31031        4.43160        0.24814
H          0.70077        6.10641        0.64065
H          1.03724        5.47347       -0.97091
H          4.43776        5.67238        0.57306
H          3.42905        6.23256       -0.76836
H          3.14380        6.83122        0.85936
H          2.18065        5.39415        2.62645
H          1.69426        3.73427        2.31084
H          3.40430        4.14603        2.38844
C          5.22822        3.46401       -3.85216
C          5.42313        2.35698       -2.79848
C          5.58805        1.01031       -3.53009
C          6.70531        2.63381       -1.99235
H          4.30369        3.31379       -4.40778
H          5.18381        4.44985       -3.39136
H          6.05185        3.47038       -4.56593
H          5.78411        0.20170       -2.82645
H          4.69504        0.76060       -4.10174
H          6.42598        1.04869       -4.22602
H          6.85630        1.86640       -1.23362
H          7.58066        2.64387       -2.64154
H          6.65217        3.59725       -1.48640
H         -1.87224       -1.40974       -5.09169
H          2.01835        0.20212       -4.23969
H         -0.44857       -0.54552       -5.66307
H         -1.50812        0.19118       -4.45739
H          2.55439        1.84670       -4.56132
H          1.22923        1.15965       -5.49667
