171
-217.84646997
P         -1.63697        0.40399       -0.34904
P          1.65655       -0.31993       -0.26092
C         -0.85465        1.44424       -1.59022
C          0.99547       -1.22039       -1.66581
C          0.01545        0.91188       -2.53618
C          0.68491        1.79037       -3.40976
C          0.43344        3.14981       -3.32859
C         -0.45153        3.65537       -2.40017
C         -1.08668        2.79677       -1.52484
C          1.22337       -2.57182       -1.75210
C          0.69464       -3.29885       -2.80057
C         -0.06970       -2.66275       -3.75593
C         -0.31143       -1.30067       -3.68663
C          0.23867       -0.55741       -2.62484
Cl         1.40722        0.29720        2.99051
Cl        -1.69835       -0.40904        2.76567
C         -1.11915       -0.64055       -4.74882
C          1.66318        1.29075       -4.41505
H         -0.64112        4.71515       -2.35070
H         -1.76569        3.18456       -0.78269
H          1.82143       -3.05996       -0.99989
H          0.88090       -4.35789       -2.87274
H          0.94610        3.81584       -4.00209
H         -0.48727       -3.22633       -4.57317
C         -3.60750       -3.39043       -1.82273
C         -2.72562       -3.46048       -0.75117
C         -2.11035       -2.28549       -0.34206
C         -2.36943       -1.10096       -0.98508
C         -3.24699       -1.04587       -2.04008
C         -3.89012       -2.19798       -2.47834
H         -4.10675       -4.28282       -2.15004
H         -1.44195       -2.28831        0.50190
H         -3.43623       -0.09296       -2.50420
C         -4.75141        2.67231        2.03904
C         -3.41248        2.99826        2.21564
C         -2.47095        2.30988        1.46061
C         -2.86495        1.33366        0.57921
C         -4.19260        1.02172        0.42177
C         -5.16807        1.69135        1.14855
H         -5.49106        3.18744        2.62400
H         -1.41962        2.51202        1.57254
H         -4.46092        0.23777       -0.26340
C          4.30623       -2.90743        2.36314
C          2.95771       -3.22806        2.25235
C          2.17147       -2.44656        1.41559
C          2.70879       -1.37249        0.75124
C          4.03637       -1.05640        0.89335
C          4.86677       -1.82251        1.69878
H          4.93373       -3.51540        2.98557
H          1.12509       -2.66409        1.28953
H          4.42905       -0.19672        0.37939
C          3.99174        3.38249       -1.37576
C          2.91832        3.50932       -0.50300
C          2.20604        2.36142       -0.17962
C          2.54868        1.15482       -0.73635
C          3.59941        1.04813       -1.61376
C          4.35072        2.16863       -1.94839
H          4.57964        4.25339       -1.59945
H          1.38427        2.39542        0.51448
H          3.83429        0.07913       -2.02083
Pd        -0.03860       -0.00750        1.29768
C         -0.94291       -5.11397       -0.15945
C         -2.43161       -4.76441        0.00316
C         -3.27219       -5.93860       -0.53345
C         -2.76000       -4.57288        1.49644
H         -0.69120       -6.01936        0.39244
H         -0.70004       -5.27923       -1.20845
H         -0.30993       -4.30728        0.20616
H         -3.05882       -6.85178        0.02208
H         -4.33825       -5.73393       -0.43615
H         -3.05080       -6.13286       -1.58274
H         -2.57197       -5.48775        2.05801
H         -2.15663       -3.78179        1.93924
H         -3.80795       -4.30448        1.62798
C         -6.30089       -2.59275       -3.02804
C         -4.93397       -2.17896       -3.60438
C         -4.52005       -3.16830       -4.70992
C         -5.07506       -0.77633       -4.22733
H         -6.60447       -1.91379       -2.23170
H         -7.07123       -2.57490       -3.79878
H         -6.26671       -3.59949       -2.61315
H         -3.53687       -2.91872       -5.10620
H         -4.47763       -4.18963       -4.33375
H         -5.23093       -3.14875       -5.53582
H         -5.40613       -0.04911       -3.48624
H         -4.13011       -0.43442       -4.64731
H         -5.81035       -0.78297       -5.03183
C         -3.43504        3.56437        4.65383
C         -3.01224        4.05278        3.25656
C         -3.71276        5.38531        2.93335
C         -1.49047        4.29294        3.26365
H         -2.96076        2.61084        4.88562
H         -3.14714        4.28147        5.42231
H         -4.51369        3.42425        4.71393
H         -4.79664        5.28472        2.97299
H         -3.42469        6.15942        3.64442
H         -3.44428        5.72808        1.93419
H         -0.94883        3.38111        3.51485
H         -1.15036        4.64276        2.28992
H         -1.22024        5.04966        3.99995
C         -6.90194        0.26111       -0.04501
C         -6.66021        1.35776        1.01162
C         -7.42879        2.62196        0.58537
C         -7.19225        0.85606        2.36631
H         -6.39726       -0.66549        0.22818
H         -7.96529        0.04113       -0.13869
H         -6.54240        0.57532       -1.02469
H         -8.49028        2.40916        0.45962
H         -7.33381        3.41331        1.32792
H         -7.04642        3.00339       -0.36128
H         -7.08929        1.61768        3.13836
H         -8.24702        0.59048        2.29758
H         -6.64169       -0.02636        2.69190
C          0.92928       -4.07551        3.49344
C          2.34161       -4.43039        2.98261
C          3.19340       -4.84472        4.19913
C          2.25529       -5.61205        2.00288
H          0.23667       -3.90015        2.67249
H          0.51816       -4.88521        4.09596
H          0.95656       -3.17667        4.10912
H          2.70123       -5.63599        4.76452
H          4.16753       -5.22462        3.89328
H          3.34728       -4.00007        4.87051
H          1.79169       -6.47890        2.47343
H          1.66705       -5.34680        1.12559
H          3.24826       -5.90228        1.66000
C          7.10439       -2.37790        2.78044
C          6.34713       -1.43588        1.82529
C          6.44992        0.00080        2.37210
C          7.00886       -1.50873        0.43663
H          8.15109       -2.08519        2.86256
H          6.67440       -2.34928        3.78147
H          7.07749       -3.40633        2.42078
H          7.49110        0.29699        2.49833
H          5.98016        0.71680        1.69864
H          5.95573        0.07960        3.34018
H          6.93263       -2.51537        0.02608
H          6.53135       -0.82560       -0.26462
H          8.06486       -1.24509        0.49259
C          2.39941        5.91263       -1.01979
C          2.58099        4.87671        0.10572
C          3.73028        5.31118        1.03211
C          1.27880        4.82205        0.92735
H          2.11634        6.88356       -0.61364
H          3.31746        6.04747       -1.59007
H          1.61966        5.59633       -1.71155
H          3.51767        6.27589        1.49244
H          3.87871        4.58167        1.82815
H          4.66657        5.40074        0.48217
H          1.02899        5.80653        1.32268
H          0.44368        4.48924        0.31161
H          1.37704        4.14326        1.77424
C          5.50772        3.14642       -3.96187
C          5.58955        2.08156       -2.85103
C          5.70882        0.69651       -3.51700
C          6.84442        2.32606       -1.99375
H          4.60584        3.01684       -4.55869
H          5.49473        4.15442       -3.54980
H          6.36522        3.07575       -4.63091
H          6.56849        0.66189       -4.18610
H          5.84233       -0.08873       -2.77341
H          4.82080        0.46721       -4.10556
H          6.91533        1.58832       -1.19477
H          7.74956        2.25952       -2.59711
H          6.81887        3.31354       -1.53389
H         -0.49556       -0.37580       -5.60363
H          1.25130        1.34942       -5.42347
H         -1.59067        0.27124       -4.37960
H         -1.90935       -1.30057       -5.10658
H          1.94244        0.25408       -4.22262
H          2.57661        1.88550       -4.39145
