64
-97.22333436
Cl        -1.30035       -0.19192       -2.85695
Cl         1.82222       -0.79165       -2.95057
P          1.92875       -0.72786        0.31342
C          1.99349       -2.48683        0.89946
C          3.75167       -0.44895        0.08059
P         -1.25286       -0.29632        0.41547
C          1.23229        0.43279        1.54470
C         -0.20503        0.60930        1.61851
C         -0.46782        1.63896        2.61412
C          0.80868        2.08130        3.15045
C          1.86420        1.31578        2.51109
H         -1.45175        1.98095        2.94115
H          0.94782        2.83128        3.93236
Pd         0.27503       -0.67493       -1.33418
H          2.93670        1.40818        2.69041
C         -5.11638        1.78981       -0.82015
C         -4.83107        0.51196       -1.25795
C         -3.65406       -0.10270       -0.86895
C         -2.76694        0.56099       -0.05239
C         -3.05587        1.83084        0.39226
C         -4.22996        2.45032        0.00686
H         -6.03148        2.27162       -1.12381
H         -5.52082       -0.00565       -1.90418
H         -3.41648       -1.09915       -1.20715
H         -2.36019        2.33763        1.03654
H         -4.45142        3.44732        0.35100
C         -2.44622       -4.35865        2.05967
C         -2.06052       -4.24294        0.73833
C         -1.70176       -3.00730        0.23093
C         -1.72695       -1.90186        1.04972
C         -2.11884       -2.00808        2.36421
C         -2.47866       -3.24319        2.87379
H         -2.72562       -5.32139        2.45566
H         -2.03998       -5.11274        0.10245
H         -1.40790       -2.89942       -0.80084
H         -2.13414       -1.12605        2.98523
H         -2.78235       -3.33342        3.90380
C          4.12528        0.48000       -1.05345
H          4.10664       -0.04281        1.03714
C          4.27781       -1.88299       -0.09907
H          5.35321       -1.92914        0.13162
C          3.47641       -2.88884        0.76758
H          4.19049       -2.15786       -1.15962
C          1.46839       -2.59094        2.31507
H          1.36920       -3.06127        0.20224
H          3.91983       -2.93460        1.77132
H          3.56355       -3.90868        0.36467
H          1.49719       -3.62082        2.67850
H          2.06784       -1.98008        2.99308
H          0.43936       -2.23636        2.38641
H          5.20818        0.52277       -1.18669
H          3.69512        0.13905       -1.99463
H          3.77724        1.49674       -0.87334
Fe         0.70310        2.33087        1.11374
C          1.01498        4.31006        0.56280
C         -0.30660        3.87091        0.15113
C         -0.14890        2.72253       -0.72153
C          1.26824        2.44407       -0.83944
C          1.99050        3.42402       -0.04813
H          1.23695        5.16605        1.20368
H         -1.24998        4.35645        0.40957
H         -0.94216        2.18105       -1.24081
H          1.69821        1.67477       -1.48402
H          3.07544        3.50866        0.04596
