72
-108.40305311
Cl         1.68776       -0.90434        2.67752
Cl        -0.88035        0.87127        2.81553
P         -1.12195        1.13690       -0.27725
P          2.25499       -0.12056       -0.38846
C          3.25537        1.47128       -0.13026
C          3.60605        1.61069        1.35273
C          4.52458        1.42860       -0.97340
C          3.31724       -1.68006       -0.14420
C          4.14798       -1.96323       -1.40225
C          1.45290       -0.39228       -2.07413
C          1.52159        0.78498       -3.02430
C         -1.12756       -0.18485       -1.52553
C          0.03484       -0.93012       -2.00634
C         -0.46983       -2.01037       -2.85504
C         -1.91503       -1.91641       -2.91045
C         -2.31838       -0.78790       -2.09409
C          2.40450        2.67160       -0.52364
H          4.11083        2.56013        1.53858
H          2.71262        1.58822        1.97669
H          5.05790        2.37866       -0.91187
H          4.30178        1.24254       -2.02311
C          4.25588       -1.56137        1.05231
H          3.53913       -2.35137       -2.21790
H          4.90544       -2.72113       -1.19552
H          2.05926       -1.19457       -2.50482
H          0.87211        1.58759       -2.68291
H          1.16860        0.50514       -4.01902
H          2.53377        1.17269       -3.13419
H          0.14777       -2.70007       -3.43292
H         -2.58083       -2.56333       -3.48569
Pd         0.51567        0.25812        1.15629
H         -3.34011       -0.45596       -1.89831
C          2.33552       -2.82002        0.08425
H          4.66260       -1.07249       -1.75763
H          3.72181       -1.26144        1.95152
H          4.72847       -2.52200        1.26231
H          5.05762       -0.84978        0.86310
H          1.81527       -2.69351        1.03234
H          1.59475       -2.86518       -0.71540
H          2.85322       -3.78070        0.11871
H          4.27339        0.82485        1.69581
H          5.20760        0.65407       -0.62835
H          2.18009        2.68713       -1.58693
H          1.46807        2.67275        0.03128
H          2.92214        3.60452       -0.29403
C         -2.79487        1.21711        0.41453
C         -3.22377        2.14619        1.32960
C         -4.55913        1.85885        1.61185
C         -4.89343        0.76498        0.85269
O         -3.81999        0.36102        0.11284
H         -2.62905        2.93172        1.76571
H         -5.20114        2.38919        2.29607
H         -5.86137        0.27959        0.83356
C         -0.73622        2.75620       -0.96575
C         -0.67762        3.90036       -0.20877
C         -0.35741        4.94717       -1.07437
C         -0.23428        4.39649       -2.32641
O         -0.46047        3.05055       -2.27314
H         -0.83060        3.96591        0.85634
H         -0.23136        5.98469       -0.81126
H          0.00887        4.93599       -3.23339
Fe        -1.30078       -2.12293       -0.94669
C         -3.00020       -2.80680       -0.01263
C         -2.20676       -2.00204        0.89602
C         -0.90740       -2.62431        1.02418
C         -0.88832       -3.80226        0.17725
C         -2.19200       -3.93166       -0.44733
H         -4.03674       -2.61064       -0.29611
H         -2.53255       -1.09359        1.40586
H         -0.10847       -2.27506        1.68041
H         -0.06443       -4.51325        0.08453
H         -2.50796       -4.73023       -1.12194
