100
-131.96455084
C         -3.16865       -2.79790       -1.51123
C         -2.01945       -3.39158       -0.82121
C         -2.82687       -1.46598       -1.86519
C         -1.42222       -1.18164       -1.44041
C         -0.57939       -0.30504       -2.32056
C         -0.94194       -2.44944       -0.78504
C          0.44624       -2.84650       -0.31041
C          1.03898       -3.95425       -1.15691
Cl        -0.44122        1.44220        2.65463
Cl         0.38995       -1.70036        2.66050
C          0.68649        1.29435       -4.25315
C          0.22194        0.03937       -4.59457
C          0.53299        1.75159       -2.95231
C         -0.40688       -0.73796       -3.65412
C         -0.06075        0.96785       -1.99182
H         -1.96223       -4.42043       -0.46022
H         -3.43861       -0.80163       -2.47995
H          0.37241       -4.81876       -1.20530
H          1.20094       -3.61501       -2.18128
H          1.99450       -4.29867       -0.75671
H          1.16709        1.91472       -4.99173
H          0.33981       -0.32248       -5.60314
H          0.88342        2.73813       -2.69212
H         -0.79648       -1.70309       -3.92975
H         -4.11072       -3.30288       -1.73954
P         -0.11392        1.69906       -0.34819
H          0.33357       -3.20612        0.72122
P          1.67577       -1.46348       -0.13790
H          1.74850       -1.47517       -2.55185
C          3.84339       -1.29084       -2.08432
C          2.36719       -1.00111       -1.79075
C          4.09759       -2.77235       -2.36479
H          3.54075       -2.80969        0.49989
C          3.96647       -0.95053        1.52870
C          2.99245       -2.02748        1.02474
H          4.14713       -0.24504        0.70013
C          3.40030       -0.15798        2.70981
H          1.11096        3.73511       -0.76064
H         -1.92183        2.65588        0.91463
C         -4.17915        2.58436       -0.77562
C         -2.82660        1.85403       -0.88304
C         -1.71259        2.61964       -0.16161
C         -1.60459        4.05085       -0.71231
C         -2.95265        4.79573       -0.62386
C         -4.06881        4.01231       -1.33942
H         -4.48099        2.63565        0.27771
H         -4.97176        2.01849       -1.28500
H         -2.55190        1.75107       -1.94057
H         -2.88637        0.82943       -0.49902
H         -0.82251        4.61121       -0.18388
H         -1.27640        4.00052       -1.75776
H         -3.22259        4.92932        0.43114
H         -2.86376        5.81124       -1.03474
H         -3.84697        3.96271       -2.41294
H         -5.03017        4.53967       -1.26153
C          3.82181        3.25102       -0.17306
C          2.65383        2.27491       -0.42451
C          1.29435        2.89854       -0.07620
C          1.30166        3.43317        1.36279
C          2.44068        4.44450        1.58449
C          3.80054        3.79723        1.26619
H          3.75362        4.08730       -0.88000
H          4.78360        2.76402       -0.38801
H          2.78661        1.36735        0.17282
H          2.66231        1.94990       -1.47137
H          0.32498        3.85940        1.62814
H          1.44333        2.58797        2.04554
H          2.28768        5.31204        0.93067
H          2.42138        4.83938        2.60993
H          3.98518        2.97529        1.96915
H          4.62086        4.51111        1.42689
H          4.42923       -1.00161       -1.19626
C          4.32558       -0.43735       -3.26240
H          2.51116       -2.51836        1.87092
C          5.31029       -1.57938        1.91117
H          2.18469        0.06605       -1.88664
H          3.82043       -3.40362       -1.52254
H          5.15022       -2.95996       -2.58301
H          3.52168       -3.10382       -3.22940
H          4.19988        0.62849       -3.06521
H          5.37970       -0.61486       -3.48113
H          3.75753       -0.67258       -4.16309
H          3.15269       -0.82427        3.53646
H          4.12157        0.57124        3.08182
H          2.49450        0.38430        2.44679
H          5.75854       -2.11199        1.07076
H          6.02373       -0.82557        2.24794
H          5.18022       -2.29564        2.72303
Fe        -2.69205       -1.72614        0.15376
C         -2.89294       -0.65437        1.92191
C         -2.61653       -2.05180        2.19404
C         -3.66462       -2.84211        1.58137
C         -4.59172       -1.93177        0.93588
C         -4.11834       -0.57929        1.15201
H         -2.26963        0.18598        2.23243
H         -1.75000       -2.44033        2.72991
H         -3.75239       -3.93066        1.61727
H         -5.50847       -2.21379        0.41263
H         -4.63842        0.33167        0.85074
Pd         0.33134       -0.04294        1.13528
