87
-129.18845838
P         -1.59214       -0.31817       -0.31264
P          1.66057        0.36418        0.01335
C         -1.27009        0.96800       -1.52795
C          1.49368       -0.69017       -1.44326
C         -0.23266        0.82795       -2.44284
C          0.01892        1.87666       -3.34966
C         -0.78176        3.00602       -3.31632
C         -1.81097        3.12187       -2.40662
C         -2.05023        2.09846       -1.51115
C          2.25122       -1.83665       -1.47174
C          2.12637       -2.73354       -2.51401
C          1.22605       -2.48085       -3.52566
C          0.44695       -1.33678       -3.51734
C          0.58942       -0.41140       -2.46494
Cl         1.21973        0.35048        3.18992
Cl        -1.50564       -1.28829        2.84049
H         -2.42148        4.00977       -2.38879
H         -2.85155        2.18246       -0.79619
H          2.94552       -2.03534       -0.67261
H          2.72200       -3.63156       -2.52970
H         -0.58571        3.80489       -4.01124
H          1.11431       -3.18282       -4.33458
C         -1.89951       -4.40647       -2.26406
C         -1.02958       -4.22720       -1.19723
C         -0.97032       -2.97724       -0.59329
C         -1.73765       -1.93773       -1.06519
C         -2.59092       -2.11993       -2.12789
C         -2.67643       -3.36280       -2.72762
H         -1.96206       -5.37424       -2.73174
C         -0.19689       -5.35054       -0.68850
H         -0.31085       -2.81762        0.24311
H         -3.17527       -1.28794       -2.48870
H         -3.34372       -3.51402       -3.56023
C         -5.30264        0.72766        2.11611
C         -5.31307       -0.38149        1.29346
C         -4.19237       -0.69926        0.54972
C         -3.07162        0.09298        0.63307
C         -3.05796        1.19623        1.45541
C         -4.17761        1.53571        2.20454
H         -6.17100        0.97132        2.70420
H         -6.19155       -1.00310        1.23584
H         -4.18310       -1.56826       -0.08733
H         -2.16735        1.79800        1.52671
C         -4.14353        2.71063        3.11711
C          5.47164       -0.69869        2.27162
C          5.39116        0.49470        1.58172
C          4.23350        0.82081        0.90074
C          3.16784       -0.04861        0.91008
C          3.24560       -1.23725        1.59905
C          4.39745       -1.57725        2.29788
H          6.37302       -0.95573        2.80146
H          6.22893        1.17261        1.57517
H          4.15505        1.75248        0.36519
H          2.39881       -1.90378        1.61128
C          4.47741       -2.86953        3.03163
C          1.39222        4.80857       -0.89379
C          2.28449        4.01883       -1.59236
C          2.37493        2.66750       -1.31416
C          1.57798        2.12201       -0.33540
C          0.70283        2.90977        0.37633
C          0.58357        4.26477        0.09494
H          1.31660        5.85987       -1.11336
H          2.90407        4.45299       -2.35981
H          3.05111        2.03198       -1.86410
H          0.10632        2.47291        1.15859
C         -0.37377        5.10879        0.86001
Pd        -0.06802       -0.26583        1.45197
C          1.12787        1.79958       -4.34085
C         -0.52724       -1.11559       -4.62224
H          1.69584        2.73074       -4.36151
H          1.82455        0.99584       -4.10031
H          0.74038        1.62138       -5.34466
H         -1.07238       -2.03302       -4.84846
H         -1.26282       -0.35419       -4.36086
H         -0.01779       -0.79559       -5.53193
H         -0.71886       -5.89300        0.10092
H          0.04054       -6.05735       -1.48485
H          0.74608       -4.98468       -0.27918
H         -5.14718        3.09320        3.30776
H         -3.69712        2.44140        4.07536
H         -3.55463        3.52283        2.68822
H          4.72401       -3.68661        2.35217
H          5.24067       -2.83607        3.81027
H          3.52600       -3.10482        3.51103
H          0.05744        5.41657        1.81356
H         -0.64058        6.00835        0.30353
H         -1.29541        4.56275        1.06751
