171
-217.84306641
P         -1.56544        0.31271       -0.45417
P          1.61577       -0.39754       -0.24540
C         -0.78565        1.29531       -1.73722
C          1.01540       -1.37233       -1.63056
C          0.04498        0.68518       -2.66900
C          0.68251        1.48652       -3.63506
C          0.44978        2.85216       -3.64282
C         -0.38997        3.43545       -2.71770
C         -1.00472        2.65075       -1.76205
C          1.25374       -2.72514       -1.61630
C          0.73711       -3.53274       -2.61007
C         -0.03927       -2.97687       -3.60467
C         -0.29234       -1.61564       -3.63782
C          0.26298       -0.78717       -2.64327
Cl         1.44378        0.35701        2.90924
Cl        -1.76584       -0.46015        2.77830
C         -1.17312       -1.06892       -4.70659
C          1.57243        0.88065       -4.66289
H         -0.56815        4.49808       -2.74160
H         -1.66358        3.09743       -1.03554
H          1.84279       -3.15348       -0.82154
H          0.92995       -4.59306       -2.59955
H          0.93380        3.46100       -4.38771
H         -0.46697       -3.60477       -4.36815
C         -3.80978       -3.26347       -2.07048
C         -2.83591       -3.47020       -1.10185
C         -2.15209       -2.36048       -0.62082
C         -2.42481       -1.11078       -1.11829
C         -3.37684       -0.92477       -2.09079
C         -4.09856       -2.00580       -2.58415
H         -4.37424       -4.10714       -2.42242
H         -1.40469       -2.45876        0.14729
H         -3.55739        0.07420       -2.45025
C         -4.45319        2.78745        2.02764
C         -3.09848        3.09291        2.07645
C         -2.23916        2.35035        1.27714
C         -2.71529        1.32373        0.49956
C         -4.05402        1.02050        0.48538
C         -4.95508        1.75700        1.24295
H         -5.14127        3.35771        2.62255
H         -1.18324        2.55715        1.27314
H         -4.39026        0.19324       -0.11296
C          4.34178       -2.74199        2.52818
C          3.00722       -3.11693        2.43500
C          2.19270       -2.41488        1.55485
C          2.70171       -1.38172        0.80641
C          4.02418       -1.02839        0.91147
C          4.87364       -1.69889        1.78045
H          4.97352       -3.27010        3.21720
H          1.14608       -2.65035        1.46789
H          4.39431       -0.20698        0.32385
C          3.86212        3.41816       -1.18191
C          2.81081        3.45392       -0.27391
C          2.11412        2.27604       -0.04107
C          2.45316        1.12112       -0.70050
C          3.49382        1.10190       -1.59764
C          4.23201        2.25354       -1.84571
H          4.41783        4.31758       -1.36340
H          1.31779        2.25103        0.68315
H          3.74907        0.17455       -2.08269
Pd        -0.09724       -0.10216        1.32805
C         -1.37548       -4.91186        0.39518
C         -2.57465       -4.88562       -0.57064
C         -2.26862       -5.83065       -1.74802
C         -3.82337       -5.37905        0.18130
H         -1.17792       -5.92691        0.73950
H         -0.47371       -4.54505       -0.09429
H         -1.56750       -4.29750        1.27453
H         -1.41315       -5.47042       -2.31807
H         -2.03800       -6.83458       -1.39201
H         -3.11534       -5.90724       -2.42877
H         -3.66703       -6.37974        0.58373
H         -4.05985       -4.71360        1.01141
H         -4.69111       -5.41393       -0.47663
C         -5.00588       -2.78687       -4.80225
C         -5.23101       -1.83931       -3.60808
C         -5.30398       -0.39500       -4.14087
C         -6.56978       -2.18199       -2.92965
H         -5.79530       -2.66918       -5.54446
H         -4.05510       -2.58018       -5.29111
H         -5.00127       -3.82994       -4.48903
H         -5.52470        0.30961       -3.33936
H         -4.36447       -0.10214       -4.60906
H         -6.09131       -0.29774       -4.88823
H         -7.40189       -2.06067       -3.62294
H         -6.57770       -3.21153       -2.57313
H         -6.74603       -1.53183       -2.07362
C         -1.18758        3.84755        3.54452
C         -2.55403        4.23748        2.94339
C         -3.50863        4.55715        4.11133
C         -2.39484        5.48939        2.06551
H         -0.42764        3.73633        2.77388
H         -0.83516        4.61019        4.23868
H         -1.25920        2.90466        4.08637
H         -3.71416        3.66296        4.69958
H         -3.07094        5.30183        4.77609
H         -4.45553        4.96035        3.75420
H         -3.35817        5.80525        1.66548
H         -1.97584        6.31811        2.63599
H         -1.73589        5.29030        1.22165
C         -6.86217        0.98798        2.67134
C         -6.45739        1.44127        1.25728
C         -6.80996        0.31882        0.26128
C         -7.25159        2.70142        0.86586
H         -7.92225        0.73856        2.71352
H         -6.29467        0.10635        2.96880
H         -6.67259        1.77014        3.40561
H         -7.88148        0.11947        0.26534
H         -6.52894        0.59752       -0.75411
H         -6.30221       -0.61043        0.51916
H         -6.95192        3.05347       -0.12109
H         -8.32147        2.49508        0.83995
H         -7.08762        3.51193        1.57480
C          0.98634       -4.54087        3.03202
C          2.46295       -4.23053        3.34064
C          2.57049       -3.77868        4.80815
C          3.28241       -5.51685        3.12708
H          0.35573       -3.66871        3.20394
H          0.86858       -4.85849        1.99691
H          0.61681       -5.34411        3.66925
H          3.60623       -3.58979        5.08810
H          2.00845       -2.85851        4.96736
H          2.17430       -4.53854        5.48144
H          2.89410       -6.33168        3.73793
H          3.24253       -5.82903        2.08362
H          4.32844       -5.37234        3.39403
C          6.41764        0.24768        2.15252
C          6.34380       -1.26820        1.88127
C          7.05156       -1.59318        0.55458
C          7.07524       -1.99905        3.02368
H          7.45113        0.57248        2.27140
H          5.98357        0.82282        1.33581
H          5.87662        0.50129        3.06390
H          8.09666       -1.28526        0.58209
H          7.01857       -2.66359        0.35234
H          6.57201       -1.08284       -0.27907
H          8.10676       -1.65618        3.10382
H          6.58866       -1.81296        3.98101
H          7.10058       -3.07475        2.85108
C          0.97551        5.09617        0.17798
C          2.42913        4.71788        0.50858
C          3.33615        5.91101        0.15176
C          2.56513        4.43603        2.01715
H          0.66271        5.97517        0.74113
H          0.86937        5.31955       -0.88298
H          0.29427        4.28150        0.41654
H          3.04870        6.79699        0.71783
H          4.37869        5.69502        0.38466
H          3.26117        6.15803       -0.90709
H          1.92276        3.61346        2.32780
H          3.59111        4.16607        2.26630
H          2.29342        5.31262        2.60488
C          6.43716        1.13061       -2.25440
C          5.45289        2.19327       -2.77766
C          6.19061        3.54502       -2.84256
C          5.00015        1.81892       -4.19824
H          6.74298        1.35890       -1.23359
H          5.98572        0.13946       -2.25851
H          7.33300        1.08916       -2.87369
H          7.06079        3.47912       -3.49563
H          5.54303        4.32781       -3.23709
H          6.54142        3.84809       -1.85617
H          4.30343        2.56164       -4.58549
H          5.85046        1.76950       -4.87828
H          4.50786        0.84749       -4.21062
H         -2.12729       -1.59520       -4.72004
H          0.99462        0.51079       -5.51045
H         -0.71393       -1.18367       -5.68953
H         -1.38652       -0.01057       -4.55232
H          2.13785        0.04429       -4.24937
H          2.28479        1.61110       -5.04642
