72
-108.40376324
Cl         1.75889       -0.83022        2.67499
Cl        -0.98684        0.65671        2.79306
P         -1.12157        1.14924       -0.27091
P          2.26634       -0.11953       -0.37440
C          3.25893        1.47869       -0.12807
C          3.61408        1.62497        1.35288
C          4.52506        1.44084       -0.97624
C          3.34089       -1.67196       -0.13197
C          4.15501       -1.95823       -1.40034
C          1.45347       -0.40119       -2.05522
C          1.52501        0.76838       -3.01475
C         -1.12870       -0.18167       -1.51009
C          0.03272       -0.93398       -1.98489
C         -0.47528       -2.01061       -2.83705
C         -1.92033       -1.90709       -2.89595
C         -2.32144       -0.76944       -2.09076
C          2.39918        2.67230       -0.52225
H          2.72243        1.59888        1.97934
H          4.28674        0.84361        1.69597
H          5.05570        2.39242       -0.91537
H          4.29901        1.25586       -2.02535
C          4.29737       -1.54355        1.04964
H          4.92384       -2.70601       -1.19874
H          4.65423       -1.06506       -1.77160
H          2.05559       -1.20917       -2.48108
H          2.53778        1.15360       -3.12706
H          0.87642        1.57472       -2.68046
H          1.17226        0.48124       -4.00748
H          0.13992       -2.70489       -3.41248
H         -2.58742       -2.54847       -3.47631
Pd         0.51101        0.25199        1.15620
H         -3.34166       -0.42830       -1.90261
C          2.36779       -2.81472        0.11849
H          3.53789       -2.36075       -2.20274
H          3.77500       -1.25010        1.95770
H          4.78295       -2.49938        1.25161
H          5.08871       -0.82372        0.84876
H          1.86477       -2.68645        1.07580
H          1.61295       -2.86521       -0.66756
H          2.88958       -3.77338        0.14705
H          4.11391        2.57789        1.53433
H          5.21183        0.66776       -0.63572
H          2.17163        2.68311       -1.58495
H          1.46436        2.66898        0.03548
H          2.91148        3.60924       -0.29705
C         -2.79351        1.23414        0.42131
C         -3.22010        2.17015        1.33036
C         -4.55481        1.88453        1.61776
C         -4.89044        0.78468        0.86776
O         -3.81866        0.37550        0.12829
H         -2.62438        2.95889        1.75924
H         -5.19533        2.41968        2.29963
H         -5.85808        0.29847        0.85496
C         -0.73508        2.76368       -0.97111
C         -0.67727        3.91575       -0.22608
C         -0.35451        4.95310       -1.10204
C         -0.22909        4.38920       -2.34793
O         -0.45631        3.04407       -2.28092
H         -0.83314        3.99358        0.83778
H         -0.22807        5.99322       -0.84959
H          0.01633        4.91892       -3.26004
Fe        -1.30995       -2.10537       -0.95201
C         -3.00686       -2.76517        0.00640
C         -2.18623       -1.98529        0.91136
C         -0.88718       -2.61733        0.99154
C         -0.89655       -3.78825        0.13459
C         -2.21031       -3.87939       -0.47684
H         -4.04670       -2.55401       -0.25302
H         -2.49001       -1.08349        1.44574
H         -0.07623       -2.29089        1.64483
H         -0.08152       -4.50512        0.01167
H         -2.54887       -4.66303       -1.15857
