72
-98.10122578
Fe        -0.02992        2.80259       -0.00708
P          1.86657       -0.04319       -0.03717
P         -1.82678       -0.09091       -0.07028
C          1.41488        1.59703        0.65271
C          0.45960        1.84221        1.71918
C          0.38041        3.27674        1.93305
C          1.31164        3.91978        1.02316
C          1.96282        2.88135        0.24159
C         -1.40672        1.55823       -0.74553
C         -2.04219        2.81817       -0.39436
C         -1.37713        3.86982       -1.14463
C         -0.37329        3.25493       -1.99463
C         -0.40706        1.82143       -1.76662
C          3.20733       -0.74408        1.03863
C          4.41818        0.08966        0.58562
C          2.93996        0.22608       -1.53434
C          4.34192        0.46769       -0.92411
C         -3.24217       -0.78219       -1.04780
C         -4.45929       -0.29492       -0.24442
C         -2.67853        0.07341        1.57275
C         -4.15594       -0.25751        1.27583
H         -0.08159        1.08114        2.27960
H         -0.24532        3.78034        2.67377
H          1.50617        4.99286        0.95442
H          2.72310        3.03635       -0.52690
H         -2.85830        2.94693        0.31968
H          0.23010        1.07680       -2.24383
Cl         1.63636       -3.07820       -0.29043
Cl        -1.55330       -3.09628        0.17139
Pd         0.03454       -1.51038       -0.05119
H          3.34173       -1.79290        0.75025
C          2.91439       -0.64307        2.53329
H          2.56682        1.12249       -2.04373
C          2.93917       -0.96010       -2.49741
H          5.35624       -0.43995        0.81366
H          4.44784        1.00534        1.19444
H          4.65100        1.51314       -1.07160
H          5.07692       -0.12529       -1.48639
H         -1.61634        4.93488       -1.10329
H          0.28014        3.77631       -2.69774
H          3.85514       -0.76008        3.08913
H          3.76112       -0.83373       -3.21596
H         -3.16490       -1.87421       -0.99620
C         -3.24997       -0.32832       -2.50304
H         -2.56333        1.12149        1.87338
C         -2.06458       -0.84885        2.61996
H         -5.33635       -0.92548       -0.45769
H         -4.72894        0.71252       -0.59178
H         -4.82011        0.45319        1.78971
H         -4.39019       -1.23906        1.70951
H         -4.21155       -0.60213       -2.95910
H         -0.97731       -0.71671        2.63187
C          1.90346       -1.66874        3.01842
H          1.69460       -1.56905        4.08596
H          0.95738       -1.57168        2.48904
H          2.25923       -2.68608        2.84496
C          1.63648       -1.15392       -3.25266
H          1.37026       -0.26199       -3.82273
H          1.69231       -1.98769       -3.95631
H          0.81607       -1.36763       -2.57007
C         -2.10631       -0.91306       -3.31204
H         -2.13395       -2.00434       -3.30661
H         -2.12720       -0.58537       -4.35386
H         -1.14651       -0.61472       -2.89387
C         -2.62839       -0.62611        4.01512
H         -2.17376       -1.29267        4.75154
H         -2.45646        0.39886        4.34932
H         -3.70616       -0.79583        4.04091
H          2.57181        0.37467        2.75989
H          3.18894       -1.86746       -1.93232
H         -3.21798        0.76869       -2.53259
H         -2.21794       -1.88988        2.30636
