45
-71.81912407
C          0.37949        1.48802        3.20146
P         -0.15094        0.76539        1.61470
P         -0.11986        0.78993       -1.60535
C          0.45550        1.54172       -3.16233
Cl         2.88741       -0.01387        1.70392
H          0.77562        2.48629        3.03879
H         -0.36556        1.61250       -3.86995
Cl         2.97803        0.03197       -1.60151
C         -1.29578        1.81907        0.69127
C         -1.28307        1.82832       -0.68912
C         -2.19249        2.59808       -1.38483
C         -3.11339        3.36777       -0.69624
C         -3.12631        3.35843        0.68465
C         -2.21838        2.57944        1.37998
H         -2.18263        2.58751       -2.46286
H         -3.82303        3.97087       -1.23838
H         -3.84613        3.95416        1.22148
H         -2.22914        2.55418        2.45772
Pd         1.46655        0.40272        0.01417
H          1.24207        0.93021       -3.59523
H          1.15437        0.86906        3.64467
H          0.84772        2.53619       -2.96964
C         -1.72934       -3.43757       -2.00401
C         -2.60626       -2.38685       -1.81628
C         -2.12257       -1.09471       -1.71644
C         -0.76963       -0.86598       -1.81135
C          0.10838       -1.90843       -1.99739
C         -0.37152       -3.20136       -2.09498
H         -2.10546       -4.44502       -2.07550
H         -3.66477       -2.57312       -1.73834
H         -2.79085       -0.26520       -1.55012
H          1.16588       -1.70033       -2.04272
H          0.31336       -4.02145       -2.23463
C         -1.78141       -3.46470        1.89211
C         -0.42614       -3.23457        2.02605
C          0.05971       -1.94169        1.96549
C         -0.80938       -0.89298        1.77344
C         -2.15967       -1.11577        1.63567
C         -2.64962       -2.40788        1.69834
H         -2.16214       -4.47206        1.93459
H          0.25233       -4.05920        2.17015
H          1.11591       -1.73797        2.04448
H         -2.82076       -0.28136        1.46523
H         -3.70595       -2.58924        1.58672
H         -0.46115        1.54453        3.88702
