59
-75.81284154
Cl         1.62283        0.66876        2.27517
P          1.60462       -0.06641       -0.85705
P         -1.63662       -0.09008       -0.79423
C          0.57946        0.32536       -2.33932
H          0.31802        1.38624       -2.32141
H          1.18032        0.14726       -3.23660
C         -0.65405       -0.53034       -2.29524
H         -0.38753       -1.58887       -2.23748
H         -1.28801       -0.39616       -3.17755
C          2.50399       -1.65533       -1.20237
H          2.29548       -1.85696       -2.26182
C          3.06391        1.06028       -0.65995
H          3.19689        1.19276        0.42069
C         -2.95533       -1.34339       -0.44709
H         -3.32123       -1.12380        0.56366
C         -2.76986        1.30902       -1.25340
H         -2.29745        1.83354       -2.09292
C          3.98958       -1.28783       -1.03788
H          4.32954       -1.57584       -0.03594
H          4.60789       -1.87478       -1.73376
C          4.22522        0.23264       -1.23689
H          4.31832        0.45360       -2.30921
H          5.17958        0.54628       -0.78684
C         -4.01673       -0.95078       -1.48764
H         -3.76897       -1.44770       -2.43700
H         -5.00317       -1.34644       -1.19924
C         -4.07025        0.59139       -1.69850
H         -4.91090        1.00439       -1.12393
H         -4.29929        0.82744       -2.74826
C          2.02386       -2.82964       -0.35152
H          2.51687       -3.74810       -0.69943
H          0.95608       -2.98736       -0.55133
C          2.87743        2.41724       -1.32779
H          3.83990        2.94764       -1.33608
H          2.62554        2.26224       -2.38486
C         -2.48830       -2.79315       -0.52318
H         -3.36761       -3.44925       -0.58523
H         -1.94943       -2.94889       -1.46573
C         -3.00418        2.27444       -0.09338
H         -3.86299        2.91636       -0.33538
H         -3.31479        1.69542        0.78642
C          2.25071       -2.67076        1.14599
H          1.77488       -3.47140        1.71717
H          1.85014       -1.72721        1.51461
H          3.31097       -2.68644        1.40174
C          1.82131        3.27127       -0.64675
H          0.85299        2.77231       -0.65091
H          1.69491        4.23968       -1.13610
H          2.07820        3.45935        0.39746
C         -1.62774       -3.19779        0.66336
H         -1.26604       -4.22513        0.57983
H         -2.18481       -3.11994        1.59896
H         -0.75853       -2.54820        0.76193
C         -1.80405        3.14355        0.24441
H         -0.96334        2.54415        0.59049
H         -1.46776        3.70926       -0.62649
H         -2.03012        3.86199        1.03569
Cl        -1.61942        0.17801        2.36535
Pd         0.00980        0.10168        0.82389
