75
-122.81702363
P          1.87616       -0.55425        0.00848
C          1.70928       -1.55737       -1.47057
C          1.56003       -2.91794       -1.33029
C          1.51422       -3.72248       -2.45482
C          1.62351       -3.15726       -3.71005
C          1.77214       -1.79101       -3.84479
C          1.81577       -0.98930       -2.71918
H          1.92901        0.07875       -2.80736
H          1.85084       -1.34897       -4.82435
H          1.58560       -3.78306       -4.58669
H          1.39418       -4.78819       -2.35007
H          1.49294       -3.34473       -0.34175
C          3.22788       -1.26470        0.96000
C          4.47425       -1.31593        0.37802
C          5.53478       -1.87357        1.06942
C          5.33628       -2.38420        2.33671
C          4.08127       -2.34301        2.91084
C          3.02340       -1.78492        2.21710
H          2.03982       -1.74643        2.65607
H          3.92550       -2.74290        3.89933
H          6.16156       -2.81786        2.87757
H          6.51251       -1.91092        0.61786
H          4.60960       -0.92673       -0.61920
C          2.22775        1.15858       -0.41422
C          3.38268        1.81216       -0.05340
C          3.54606        3.16200       -0.33176
C          2.50273        3.84805       -0.95209
C          1.33390        3.20873       -1.30146
C          1.19318        1.83606       -1.04178
O          0.01112        1.14943       -1.36425
C         -1.18692        1.81578       -1.05741
C         -1.34654        3.18623       -1.31740
C         -2.53013        3.80578       -0.98270
C         -3.57075        3.10106       -0.37909
C         -3.39001        1.75296       -0.10330
C         -2.21969        1.11861       -0.44860
P         -1.84799       -0.59205       -0.02906
C         -3.17328       -1.30044        0.96236
C         -4.43270       -1.36885        0.41093
C         -5.47261       -1.92383        1.13492
C         -5.24093       -2.41444        2.40441
C         -3.97326       -2.35585        2.94828
C         -2.93601       -1.80047        2.22206
H         -1.94305       -1.75001        2.63797
H         -3.79153       -2.74021        3.93850
H         -6.05012       -2.84591        2.97073
H         -6.46033       -1.97454        0.70703
H         -4.59444       -0.99602       -0.58859
C         -1.72531       -1.58511       -1.52343
C         -1.52517       -0.99137       -2.74837
C         -1.51974       -1.76212       -3.89587
C         -1.70934       -3.12687       -3.80771
C         -1.89998       -3.72134       -2.57608
C         -1.91011       -2.94578       -1.43053
H         -2.07581       -3.39318       -0.46317
H         -2.04429       -4.78692       -2.50648
H         -1.70048       -3.72996       -4.70088
H         -1.35941       -1.29846       -4.85529
H         -1.35936        0.07164       -2.79985
Pd        -0.00293       -0.10064        1.36374
Cl        -1.53363        0.94003        2.67551
Cl         1.50428        0.82821        2.77968
H         -4.16059        1.20542        0.40975
C         -4.82437        3.79286        0.02222
H         -5.03119        4.64308       -0.62898
H         -4.75048        4.16187        1.04592
H         -5.67965        3.11799       -0.03161
H         -2.64373        4.85702       -1.18057
S         -0.00916        4.08207       -2.06215
H          2.60188        4.90061       -1.15074
C          4.78269        3.87523        0.08443
H          4.15426        1.27761        0.47197
H          4.68684        4.25071        1.10395
H          5.64860        3.21277        0.04951
H          4.98745        4.72357       -0.56986
