87
-129.18645779
P         -1.69796       -0.37311       -0.15445
P          1.60895        0.36060       -0.15198
C         -1.42667        0.95892       -1.34509
C          1.36149       -0.65449       -1.61419
C         -0.45164        0.90107       -2.33858
C         -0.23634        2.03541       -3.14505
C         -1.01208        3.16507       -2.95050
C         -1.97959        3.20126       -1.97060
C         -2.17747        2.09649       -1.16630
C          2.15071       -1.76428       -1.79234
C          1.97345       -2.57146       -2.89852
C          0.99970       -2.25839       -3.82304
C          0.19069       -1.14595       -3.66120
C          0.37587       -0.31943       -2.53516
Cl         1.25318        1.06678        2.95323
Cl        -1.38220       -0.95266        2.96274
H         -2.57089        4.09032       -1.82437
H         -2.92182        2.12435       -0.38784
H          2.91110       -1.99950       -1.06630
H          2.59095       -3.44394       -3.03581
H         -0.84402        4.02742       -3.57318
H          0.85484       -2.88714       -4.68513
C         -1.10075       -4.57031       -1.78778
C         -0.46972       -4.19880       -0.60841
C         -0.68593       -2.91703       -0.11878
C         -1.49724       -2.03619       -0.79617
C         -2.13643       -2.41889       -1.95169
C         -1.93743       -3.69311       -2.45016
H         -0.93013       -5.55636       -2.18499
C          0.45929       -5.12539        0.09338
H         -0.22651       -2.61350        0.80594
H         -2.76902       -1.71377       -2.46730
H         -2.42416       -3.99599       -3.36267
C         -5.71989        0.12740        1.92089
C         -5.55110       -0.86522        0.97589
C         -4.32991       -1.01767        0.34658
C         -3.28772       -0.17940        0.66718
C         -3.45399        0.81007        1.60882
C         -4.67631        0.98260        2.24676
H         -6.66728        0.24204        2.41950
H         -6.36851       -1.52389        0.73202
H         -4.18215       -1.79282       -0.38737
H         -2.62313        1.44552        1.86816
C         -4.83790        2.03043        3.29103
C          5.03278       -1.30080        2.35222
C          5.14320       -0.04397        1.79053
C          4.11083        0.46182        1.02333
C          2.97819       -0.29148        0.82339
C          2.86441       -1.54211        1.38587
C          3.89501       -2.07048        2.15293
H          5.83177       -1.69302        2.95807
H          6.03040        0.54531        1.95496
H          4.17839        1.44571        0.58902
H          1.96616       -2.11623        1.23326
C          3.75185       -3.41127        2.78251
C          2.23418        4.71198       -1.28473
C          3.01350        3.73092       -1.86616
C          2.83175        2.40642       -1.51333
C          1.88073        2.07971       -0.57556
C          1.11061        3.05464        0.01428
C          1.26648        4.38811       -0.34357
H          2.37201        5.74367       -1.56015
H          3.75782        3.99549       -2.59921
H          3.41737        1.62432       -1.97076
H          0.37743        2.78062        0.75404
C          0.43203        5.44191        0.29450
Pd        -0.05746        0.04175        1.45093
C          0.81064        2.04972       -4.20454
C         -0.85408       -0.84966       -4.68032
H          1.36145        2.99128       -4.19329
H          1.53400        1.24605       -4.06323
H          0.36517        1.93384       -5.19327
H         -1.41137       -1.75105       -4.93923
H         -1.57132       -0.11348       -4.31574
H         -0.40535       -0.45913       -5.59450
H          0.20521       -6.16708       -0.10730
H          1.48761       -4.95988       -0.23150
H          0.41982       -4.97611        1.17343
H         -4.28456        2.93331        3.02838
H         -5.88559        2.30773        3.41551
H         -4.46579        1.67613        4.25333
H          3.20745       -4.09461        2.12898
H          4.72550       -3.85683        2.99108
H          3.20504       -3.33894        3.72367
H          0.89403        5.79573        1.21714
H          0.30235        6.29807       -0.36905
H         -0.56030        5.06010        0.53957
