105
-153.07185270
Cl        -0.90151        2.09866       -2.86488
Pd         0.09047        1.51765       -0.93106
P          1.35466        0.75325        0.86211
N          0.60544       -0.46833        1.87504
C          0.01781       -1.70605        1.65639
C         -0.12006       -2.30978        0.38166
C         -0.83408       -3.52109        0.26365
C         -0.97855       -4.14735       -1.10300
C         -2.05495       -5.24082       -1.18530
C         -1.95298       -6.19961        0.00433
C         -2.12385       -5.44348        1.33069
C         -1.35947       -4.14470        1.39762
C         -1.17570       -3.55476        2.64064
C         -0.50631       -2.36593        2.76761
H         -0.39965       -1.91046        3.73683
H         -1.58568       -4.03647        3.51223
H         -3.18597       -5.23112        1.50051
H         -2.69146       -7.00916       -0.08320
H         -3.04783       -4.77381       -1.18976
H         -1.19843       -3.35700       -1.83086
C          0.64240       -1.83365       -0.79909
C         -0.02691       -1.20862       -1.88708
C          0.68619       -0.98909       -3.06935
C          1.99637       -1.37437       -3.18690
C          2.65292       -2.02009       -2.14654
C          4.06071       -2.50668       -2.36806
C          4.40284       -3.72650       -1.50152
C          4.08127       -3.44056       -0.03175
C          2.60166       -3.06453        0.16728
C          1.97738       -2.25435       -0.94773
H          2.01079       -3.97969        0.29275
H          4.71708       -2.61935        0.31664
H          5.45650       -4.01470       -1.62532
H          4.75687       -1.68919       -2.15093
H          2.52798       -1.19162       -4.10532
H          0.19361       -0.49097       -3.88580
N         -1.36232       -0.79236       -1.81125
P         -1.85117        0.21328       -0.44360
C         -2.81530       -0.73768        0.72975
C         -3.53050       -1.80807        0.25014
C         -4.32939       -2.54140        1.10874
C         -4.42253       -2.19562        2.44996
C         -3.70152       -1.10151        2.91097
C         -2.90703       -0.36665        2.04976
H         -2.35345        0.48700        2.40347
H         -3.76205       -0.83152        3.95141
C         -5.24148       -3.01405        3.38592
H         -4.88001       -3.39072        0.74216
H         -3.44963       -2.06920       -0.79320
C         -2.96363        1.52568       -0.96169
C         -2.89968        2.75181       -0.34255
C         -3.75717        3.76311       -0.73522
C         -4.69156        3.54709       -1.73919
C         -4.74205        2.30002       -2.34772
C         -3.88281        1.28959       -1.95501
H         -3.92623        0.31780       -2.41995
H         -5.45592        2.12630       -3.13466
C         -5.59248        4.64561       -2.18525
H         -3.70147        4.73043       -0.26585
H         -2.17470        2.91709        0.43874
H         -1.70903       -0.31085       -2.63107
H          0.79845       -0.20973        2.83508
C          1.30423        2.26665        1.82812
C          2.41678        3.05795        1.98564
C          2.32522        4.23397        2.70704
C          1.11713        4.62873        3.26648
C          0.00597        3.81264        3.10085
C          0.10067        2.63632        2.37944
H         -0.75948        2.00214        2.23953
H         -0.93371        4.10401        3.53813
C          1.02622        5.88574        4.05978
H          3.19372        4.85697        2.83626
H          3.34918        2.75914        1.53528
C          3.08600        0.35747        0.61909
C          3.74110        0.69113       -0.54195
C          5.09175        0.42823       -0.67150
C          5.80069       -0.15574        0.36912
C          5.12569       -0.47438        1.53992
C          3.77207       -0.21507        1.66396
H          3.24573       -0.45392        2.57448
H          5.66446       -0.93246        2.35168
C          7.24670       -0.47462        0.21375
H          5.60634        0.68337       -1.58217
H          3.19938        1.18077       -1.33336
Cl         1.76781        2.98193       -1.24038
H         -1.81562       -6.07854        2.17115
H         -1.98354       -5.78932       -2.13516
H         -0.97260       -6.69238       -0.01059
H         -0.00773       -4.55952       -1.40237
H          4.35038       -4.30082        0.59709
H          2.47758       -2.51281        1.10690
H          4.20213       -2.73962       -3.43116
H          3.81663       -4.58977       -1.84095
H         -5.60556       -2.41308        4.22035
H         -6.10969       -3.43911        2.88035
H         -4.65373       -3.83707        3.79495
H         -5.13124        5.22104       -2.98899
H         -6.54086        4.25228       -2.55392
H         -5.81457        5.33033       -1.36556
H          1.32183        5.71256        5.09544
H          1.67780        6.65762        3.64780
H          0.00862        6.27883        4.06147
H          7.75406       -0.48724        1.17937
H          7.37934       -1.45359       -0.24909
H          7.74694        0.26472       -0.41327
