58
-89.86689121
P          1.55226        0.16447        0.80571
C          1.54801        1.93648        0.50204
C          1.62512        2.36163       -0.80464
C          1.60715        3.71335       -1.09365
C          1.51832        4.63184       -0.06653
C          1.45427        4.20201        1.24449
C          1.47159        2.84874        1.52991
H          1.42470        2.50433        2.54982
H          1.69980        1.62556       -1.58987
C          3.18269       -0.52429        0.50413
C          4.27790        0.30838        0.54682
C          5.54248       -0.20518        0.32107
C          5.69999       -1.55090        0.05456
C          4.59828       -2.38249        0.01338
C          3.33520       -1.86619        0.24070
H          2.46624       -2.50260        0.19475
H          4.13772        1.35765        0.75259
C          1.05807       -0.26568        2.52713
C          0.38811       -1.63309        2.58524
C         -1.11364       -1.59890        2.34403
P         -1.62411       -0.75739        0.78430
C         -1.83870        1.02439        0.96385
C         -1.84710        1.64819        2.19047
C         -1.96784        3.02385        2.26125
C         -2.08383        3.76796        1.10406
C         -2.08753        3.13916       -0.12443
C         -1.96774        1.76356       -0.19055
H         -1.96579        1.25451       -1.14198
H         -1.76966        1.06479        3.09224
C         -3.12826       -1.52096        0.17369
C         -4.29305       -0.79195        0.09790
C         -5.44641       -1.38676       -0.38085
C         -5.42305       -2.70823       -0.78135
C         -4.25133       -3.43519       -0.70453
C         -3.09937       -2.83768       -0.22427
H         -2.17346       -3.38859       -0.16928
H         -4.29434        0.24003        0.40948
Pd         0.06596       -0.60137       -0.80126
Cl         1.77160       -0.74203       -2.25625
Cl        -1.46735       -1.10377       -2.36214
H         -1.52386       -2.61099        2.30271
H         -1.62959       -1.09487        3.16255
H          0.86411       -2.29196        1.84610
H          0.58551       -2.10724        3.55953
H          1.97703       -0.23517        3.11823
H          0.40106        0.50883        2.92185
H          1.66119        4.04685       -2.11685
H          1.38665        4.91990        2.04533
H          6.40148        0.44482        0.35089
H          4.72047       -3.43155       -0.20067
H         -1.96835        3.51521        3.22039
H         -2.17638        3.71715       -1.02948
H         -6.35978       -0.81838       -0.44385
H         -4.23163       -4.46463       -1.02246
H          1.50095        5.68645       -0.28824
H          6.68409       -1.95234       -0.12464
H         -2.17073        4.84080        1.15985
H         -6.32019       -3.17221       -1.15762
