105
-153.07138805
Cl        -0.88561        2.05724       -2.89189
Pd         0.08315        1.53481       -0.93345
P          1.33971        0.73874        0.86126
N          0.61718       -0.49217        1.88348
C          0.03098       -1.72906        1.65933
C         -0.09586       -2.32735        0.38187
C         -0.81550       -3.53262        0.24809
C         -0.94506       -4.14676       -1.12657
C         -1.47077       -5.59091       -1.13605
C         -2.63010       -5.76222       -0.15020
C         -2.18180       -5.41762        1.27802
C         -1.38251       -4.14251        1.36889
C         -1.20045       -3.56563        2.61860
C         -0.51007       -2.39030        2.76169
H         -0.40752       -1.94216        3.73475
H         -1.62833       -4.04631        3.48209
H         -3.05309       -5.33751        1.94076
H         -3.45516       -5.10112       -0.44341
H         -1.77528       -5.88880       -2.14931
H         -1.60601       -3.50984       -1.72609
C          0.66375       -1.83954       -0.79479
C         -0.01755       -1.22452       -1.88025
C          0.68548       -1.00501       -3.06826
C          1.99668       -1.38455       -3.19431
C          2.66470       -2.02295       -2.15656
C          4.07210       -2.50627       -2.38859
C          4.43105       -3.71498       -1.51312
C          4.11710       -3.41953       -0.04352
C          2.63504       -3.05781        0.16205
C          1.99990       -2.25396       -0.95103
H          2.05306       -3.97841        0.28985
H          4.74616       -2.58833        0.29336
H          5.48645       -3.99464       -1.64149
H          4.76730       -1.68342       -2.18956
H          2.52014       -1.20329       -4.11770
H          0.18428       -0.51219       -3.88266
N         -1.35382       -0.81456       -1.79261
P         -1.83460        0.20159       -0.42949
C         -2.79547       -0.73085        0.76248
C         -3.53442       -1.79332        0.30129
C         -4.33362       -2.50665        1.17650
C         -4.40394       -2.14880        2.51593
C         -3.65961       -1.06300        2.95830
C         -2.86479       -0.34828        2.08069
H         -2.29315        0.49839        2.42137
H         -3.70231       -0.78381        3.99721
C         -5.22360       -2.94444        3.47075
H         -4.90317       -3.34958        0.82463
H         -3.47453       -2.06284       -0.74124
C         -2.95308        1.50577       -0.95949
C         -2.90065        2.73748       -0.35029
C         -3.76544        3.73862       -0.75261
C         -4.68779        3.51088       -1.76506
C         -4.73953        2.25305       -2.35066
C         -3.87292        1.25283       -1.94817
H         -3.91398        0.27450       -2.39939
H         -5.46222        2.06200       -3.12546
C         -5.63233        4.58222       -2.18631
H         -3.72676        4.70628       -0.28223
H         -2.18128        2.91444        0.43337
H         -1.71146       -0.34202       -2.61286
H          0.80026       -0.22918        2.84431
C          1.28935        2.24811        1.83597
C          0.07755        2.63762        2.35426
C         -0.01635        3.81073        3.08082
C          1.10446        4.60424        3.28525
C          2.32117        4.18945        2.75989
C          2.41157        3.01667        2.03313
H          3.35132        2.70324        1.60895
H          3.19746        4.79422        2.91945
C          1.01082        5.85744        4.08422
H         -0.96297        4.11779        3.49164
H         -0.79007        2.02213        2.18306
C          3.07299        0.36088        0.59940
C          3.70988        0.68114       -0.57549
C          5.06309        0.43694       -0.71484
C          5.79233       -0.11681        0.32818
C          5.13489       -0.42527        1.51160
C          3.77904       -0.18340        1.64619
H          3.26641       -0.41312        2.56689
H          5.68921       -0.86072        2.32535
C          7.24168       -0.41438        0.16209
H          5.56395        0.68339       -1.63552
H          3.15129        1.14242       -1.37234
Cl         1.77175        2.99422       -1.18831
H         -1.57813       -6.23781        1.68448
H         -0.65832       -6.27518       -0.86087
H         -3.03745       -6.78206       -0.19878
H          0.03068       -4.10308       -1.62647
H          4.39974       -4.27136        0.59084
H          2.50953       -2.50670        1.10190
H          4.20162       -2.75061       -3.45066
H          3.85070       -4.58668       -1.84092
H         -4.62397       -3.72926        3.93400
H         -5.62486       -2.31380        4.26530
H         -6.06681       -3.41870        2.96666
H         -6.55818        4.53063       -1.61180
H         -5.19757        5.57148       -2.03678
H         -5.88570        4.48941       -3.24330
H          1.18905        5.65715        5.14160
H          1.74580        6.59186        3.75183
H          0.02368        6.31195        3.98913
H          7.75467       -0.42965        1.12469
H          7.38517       -1.38678       -0.31125
H          7.72803        0.33810       -0.46023
