58
-89.86786983
P          1.58635        0.18309        0.76626
C          1.55964        1.96213        0.51165
C          1.48748        2.43493       -0.77847
C          1.45367        3.79608       -1.01605
C          1.50063        4.67756        0.04550
C          1.58828        4.20075        1.33870
C          1.62079        2.83767        1.57215
H          1.69513        2.45665        2.57748
H          1.46667        1.72909       -1.59317
C          3.20125       -0.49466        0.37394
C          4.29087        0.34557        0.34180
C          5.54169       -0.16070        0.03696
C          5.69078       -1.50656       -0.23390
C          4.59440       -2.34557       -0.20086
C          3.34501       -1.83653        0.10510
H          2.47983       -2.47960        0.12111
H          4.15662        1.39510        0.54994
C          1.15362       -0.27927        2.49741
C          0.43470       -1.62134        2.56798
C         -1.07423       -1.53027        2.39418
P         -1.62924       -0.75203        0.81492
C         -1.79444        1.04026        0.90464
C         -1.71538        1.73096        2.09203
C         -1.80753        3.11059        2.09093
C         -1.98107        3.79079        0.90194
C         -2.06832        3.09477       -0.28670
C         -1.97556        1.71533       -0.28151
H         -2.03009        1.15314       -1.20101
H         -1.59296        1.19705        3.01903
C         -3.17290       -1.50924        0.30042
C         -4.31761       -0.75127        0.20412
C         -5.50161       -1.34176       -0.19915
C         -5.52920       -2.68840       -0.50400
C         -4.37777       -3.44471       -0.40677
C         -3.19506       -2.85123       -0.00227
H         -2.28469       -3.42593        0.06668
H         -4.27978        0.29959        0.44116
Pd         0.08424       -0.70738       -0.75565
Cl         1.64233       -0.46352       -2.35686
Cl        -1.49523       -1.34777       -2.22222
H         -1.52715       -2.52448        2.42267
H         -1.52812       -0.96646        3.21038
H          0.85338       -2.29084        1.80438
H          0.65521       -2.11137        3.52924
H          2.09965       -0.29526        3.04491
H          0.54630        0.51031        2.93991
H          1.39082        4.16587       -2.02620
H          1.62836        4.88954        2.16650
H          6.39627        0.49511        0.00794
H          4.70983       -3.39481       -0.41775
H         -1.74015        3.65501        3.01852
H         -2.19979        3.62320       -1.21650
H         -6.39919       -0.75066       -0.27805
H         -4.39790       -4.49430       -0.65001
H          1.47158        5.73964       -0.13557
H          6.66396       -1.90232       -0.47475
H         -2.04568        4.86664        0.90151
H         -6.45032       -3.14935       -0.82143
