171
-217.84279275
P         -1.60373        0.30217       -0.50182
P          1.65908       -0.36125       -0.22176
C         -0.81292        1.26376       -1.78869
C          1.08643       -1.36717       -1.59391
C          0.06788        0.65286       -2.67300
C          0.71317        1.44845       -3.63863
C          0.42820        2.80279       -3.70183
C         -0.46848        3.38282       -2.82948
C         -1.08351        2.60756       -1.86611
C          1.36480       -2.71239       -1.56399
C          0.87366       -3.54674       -2.54823
C          0.08226       -3.02501       -3.54892
C         -0.21312       -1.67272       -3.59546
C          0.31843       -0.81475       -2.61334
Cl         1.31950        0.33768        2.94121
Cl        -1.87000       -0.54437        2.62091
C         -1.09413       -1.16238       -4.68065
C          1.66741        0.84821       -4.61013
H         -0.68856        4.43561       -2.89833
H         -1.78189        3.05024       -1.17401
H          1.96782       -3.11412       -0.76591
H          1.09832       -4.60064       -2.52604
H          0.91605        3.40518       -4.44946
H         -0.32096       -3.67280       -4.30907
C         -3.85965       -3.26841       -2.11545
C         -2.85451       -3.47686       -1.17889
C         -2.17238       -2.36617       -0.69810
C         -2.47616       -1.11208       -1.16467
C         -3.45961       -0.92349       -2.10468
C         -4.18912       -2.00304       -2.58766
H         -4.40482       -4.12104       -2.47390
H         -1.39901       -2.46768        0.04360
H         -3.66650        0.07524       -2.45224
C         -4.39219        2.74910        2.12124
C         -3.03517        3.04982        2.11819
C         -2.21038        2.32647        1.26675
C         -2.72232        1.32917        0.47332
C         -4.06447        1.04140        0.49666
C         -4.92928        1.74549        1.32375
H         -5.04439        3.30083        2.77014
H         -1.15118        2.51996        1.24812
H         -4.43911        0.24509       -0.12155
C          4.32923       -2.66492        2.64028
C          3.00647       -3.06322        2.49348
C          2.21311       -2.36666        1.59051
C          2.72963       -1.31659        0.87138
C          4.03994       -0.93906        1.03030
C          4.86848       -1.60320        1.92438
H          4.94544       -3.19105        3.34471
H          1.17592       -2.62299        1.45972
H          4.41681       -0.10709        0.46234
C          3.86685        3.45104       -1.24538
C          2.77459        3.51270       -0.38813
C          2.08471        2.33521       -0.13088
C          2.48454        1.15351       -0.70323
C          3.56833        1.10809       -1.54614
C          4.29219        2.26117       -1.82560
H          4.40755        4.35286       -1.45735
H          1.23633        2.33250        0.53170
H          3.86352        0.16179       -1.96821
Pd        -0.12401       -0.13065        1.27428
C         -1.35918       -4.91294        0.29161
C         -2.55185       -4.89737       -0.68332
C         -2.20949       -5.79894       -1.88395
C         -3.78836       -5.45089        0.04726
H         -1.13969       -5.92915        0.61875
H         -0.46216       -4.51625       -0.18281
H         -1.57254       -4.31947        1.18040
H         -1.95833       -6.80720       -1.55514
H         -3.04655       -5.87448       -2.57675
H         -1.35664       -5.40126       -2.43258
H         -4.65025       -5.50071       -0.61725
H         -3.60033       -6.45483        0.42744
H         -4.05299       -4.81378        0.89101
C         -6.10273       -3.06498       -3.89165
C         -5.34104       -1.76306       -3.57630
C         -4.78496       -1.19154       -4.89221
C         -6.33397       -0.75906       -2.96117
H         -5.44953       -3.79823       -4.36430
H         -6.51921       -3.50428       -2.98530
H         -6.92929       -2.87301       -4.57575
H         -4.22815       -0.27119       -4.71915
H         -4.11866       -1.90702       -5.37240
H         -5.59143       -0.96780       -5.59038
H         -6.70250       -1.12028       -2.00122
H         -5.86392        0.21005       -2.80060
H         -7.19152       -0.60602       -3.61615
C         -1.74984        5.19944        2.21015
C         -2.41521        4.09832        3.05279
C         -1.35975        3.41383        3.94345
C         -3.47188        4.75129        3.96423
H         -2.47918        5.68345        1.56090
H         -1.30141        5.96282        2.84573
H         -0.96507        4.78594        1.58082
H         -0.56206        2.97156        3.34847
H         -0.90609        4.12689        4.63134
H         -1.81288        2.61616        4.53154
H         -4.23185        5.26717        3.37768
H         -3.96285        4.00691        4.59082
H         -3.01115        5.48582        4.62468
C         -7.03708        1.80852       -0.02148
C         -6.42464        1.39579        1.32768
C         -7.17848        2.12489        2.45689
C         -6.59908       -0.12199        1.53515
H         -6.53970        1.30129       -0.84636
H         -8.09749        1.56033       -0.06315
H         -6.93332        2.88179       -0.17989
H         -8.22815        1.83170        2.47276
H         -6.75187        1.88342        3.43032
H         -7.14367        3.20559        2.32133
H         -6.11852       -0.44066        2.45988
H         -7.65423       -0.38852        1.59331
H         -6.16103       -0.69190        0.71696
C          2.50571       -3.77891        4.83856
C          2.44956       -4.20169        3.35954
C          3.29293       -5.47218        3.14546
C          0.98694       -4.52451        2.99911
H          2.09786       -4.55697        5.48351
H          3.52979       -3.58413        5.15497
H          1.92785       -2.86874        4.99860
H          2.89907       -6.30397        3.72931
H          3.28747       -5.76456        2.09553
H          4.32871       -5.31806        3.44510
H          0.60844       -5.34412        3.60967
H          0.34034       -3.66349        3.16782
H          0.90379       -4.82376        1.95502
C          7.02191       -1.86663        3.25703
C          6.32834       -1.15380        2.07999
C          6.37546        0.36491        2.34112
C          7.09151       -1.48149        0.78523
H          8.04324       -1.50620        3.37945
H          6.49130       -1.68401        4.19136
H          7.07289       -2.94259        3.09199
H          7.39965        0.70096        2.50189
H          5.97236        0.92916        1.50128
H          5.79310        0.62047        3.22608
H          8.13094       -1.16043        0.85067
H          7.07921       -2.55389        0.59140
H          6.63851       -0.98418       -0.07080
C          0.99731        5.26698       -0.39641
C          2.31194        4.82334        0.26430
C          3.35451        5.94563        0.09396
C          2.09101        4.60206        1.77411
H          0.61462        6.17897        0.06135
H          1.14830        5.45928       -1.45832
H          0.23674        4.49331       -0.30395
H          3.03620        6.85006        0.61236
H          4.31885        5.64824        0.50572
H          3.49056        6.20337       -0.95602
H          1.79617        5.52918        2.26533
H          1.31005        3.86775        1.96231
H          3.00503        4.24489        2.24795
C          5.15114        1.73968       -4.12771
C          5.54745        2.17976       -2.70876
C          6.52594        1.15425       -2.10642
C          6.26945        3.53818       -2.80330
H          4.66160        0.76670       -4.11556
H          4.46788        2.46077       -4.57507
H          6.02736        1.66386       -4.77144
H          7.44596        1.10349       -2.68847
H          6.78802        1.42679       -1.08429
H          6.08998        0.15638       -2.08952
H          6.57356        3.88981       -1.81751
H          7.16737        3.45651       -3.41577
H          5.62929        4.29307       -3.25944
H         -1.46693       -0.16179       -4.45774
H          1.14436        0.47416       -5.49074
H         -1.95733       -1.81586       -4.80775
H         -0.56254       -1.12430       -5.63234
H          2.21408        0.01684       -4.16269
H          2.39641        1.58449       -4.94871
