72
-98.10215298
Fe        -0.02221        2.84763        0.00756
P          1.82112       -0.00544       -0.06029
P         -1.82079       -0.01965        0.06263
C          1.39763        1.60531        0.70695
C          0.39461        1.81074        1.73573
C          0.32692        3.23404        2.01170
C          1.32610        3.90049        1.19669
C          2.00917        2.89096        0.40701
C         -1.41965        1.59722       -0.70268
C         -2.03993        2.87661       -0.39412
C         -1.36033        3.89446       -1.17714
C         -0.37057        3.24093       -2.01361
C         -0.41734        1.81884       -1.72912
C          3.15966       -0.78413        0.96660
C          4.36883        0.07435        0.55858
C          2.88996        0.32937       -1.54833
C          4.30636        0.48616       -0.94172
C         -3.14824       -0.81835       -0.96352
C         -4.37083        0.01967       -0.55246
C         -2.89297        0.29509        1.55228
C         -4.31066        0.43867        0.94611
H         -0.21902        1.03386        2.18766
H         -0.33781        3.71464        2.73304
H          1.54221        4.97101        1.19420
H          2.81219        3.06737       -0.31086
H         -2.84025        3.04455        0.32904
H          0.20076        1.04871       -2.18668
Cl         1.54562       -3.05005       -0.50959
Cl        -1.47983       -3.08293        0.54044
Pd         0.00267       -1.48322       -0.01939
H          3.29287       -1.81058        0.60518
C          2.86734       -0.78912        2.46926
H          2.54165        1.26886       -1.99378
C          2.83031       -0.79514       -2.58080
H          5.30931       -0.45089        0.78742
H          4.37655        0.97496        1.19016
H          4.67026        1.51610       -1.07181
H          5.00540       -0.13584       -1.51799
H         -1.58570        4.96321       -1.16921
H          0.28820        3.73002       -2.73431
H          3.81798       -0.74788        3.01907
H          3.66153       -0.67450       -3.28957
H         -3.26262       -1.84758       -0.60326
C         -2.86094       -0.81525       -2.46780
H         -2.55564        1.23579        2.00360
C         -2.82136       -0.83493        2.57778
H         -5.30265       -0.52310       -0.77570
H         -4.39746        0.91769       -1.18725
H         -4.68172        1.46666        1.07140
H         -5.00500       -0.18531        1.52596
H         -3.81410       -0.77713       -3.01349
H         -3.01167       -1.78437        2.06068
C          2.07427       -2.00667        2.92050
H          1.14694       -2.11070        2.35937
H          2.63985       -2.92628        2.75864
H          1.81681       -1.96124        3.98104
C          1.52129       -0.86875       -3.34698
H          1.33938        0.04675       -3.91307
H          1.50816       -1.69953       -4.05620
H          0.67977       -1.00816       -2.67065
C         -2.06304       -2.02575       -2.92955
H         -1.12848       -2.12373       -2.37953
H         -2.61980       -2.95003       -2.76381
H         -1.81737       -1.97609       -3.99271
C         -1.50856       -0.90404        3.33754
H         -1.48565       -1.74006        4.04033
H         -0.66964       -1.03192        2.65571
H         -1.33097        0.00854        3.90967
H          2.34375        0.13838        2.73373
H          3.02536       -1.74632       -2.06876
H         -2.34426        0.11666       -2.73034
H         -3.65049       -0.72456        3.29064
