171
-217.84286343
P         -1.59274        0.34130       -0.50706
P          1.63281       -0.33004       -0.30641
C         -0.85414        1.33304       -1.80464
C          1.06385       -1.28674       -1.71325
C          0.02973        0.76490       -2.71430
C          0.66134        1.60255       -3.65357
C          0.34931        2.95192       -3.67751
C         -0.55738        3.48813       -2.78821
C         -1.14942        2.67385       -1.84296
C          1.36349       -2.62709       -1.74248
C          0.89071       -3.42271       -2.76726
C          0.09354       -2.86947       -3.74627
C         -0.22239       -1.52101       -3.73310
C          0.29392       -0.70080       -2.71150
Cl         1.40321        0.42030        2.87340
Cl        -1.78088       -0.46496        2.66535
C         -1.08912       -0.96540       -4.80776
C          1.63948        1.05983       -4.63514
H         -0.79821        4.53801       -2.82540
H         -1.84706        3.08562       -1.13140
H          1.97035       -3.05426       -0.96037
H          1.13780       -4.47137       -2.79640
H          0.82562        3.58525       -4.40685
H         -0.29354       -3.48863       -4.53796
C         -3.78986       -3.37922       -1.84756
C         -2.79042       -3.49166       -0.88802
C         -2.10804       -2.33898       -0.52359
C         -2.41685       -1.13302       -1.10101
C         -3.40333       -1.03788       -2.05187
C         -4.12305       -2.16350       -2.43537
H         -4.33158       -4.25963       -2.13425
H         -1.33900       -2.37819        0.22911
H         -3.62659       -0.07445       -2.47927
C         -4.43130        2.73065        2.11350
C         -3.07935        3.05408        2.11608
C         -2.23887        2.34190        1.27109
C         -2.73088        1.33579        0.47662
C         -4.06793        1.02640        0.49208
C         -4.94806        1.71810        1.31337
H         -5.09549        3.27196        2.75906
H         -1.18286        2.55297        1.25679
H         -4.42628        0.22475       -0.12916
C          4.22633       -2.81343        2.47654
C          2.88006       -3.13236        2.35172
C          2.11308       -2.38223        1.46943
C          2.67286       -1.34551        0.76297
C          4.00292       -1.03917        0.90843
C          4.80963       -1.76708        1.77239
H          4.82808       -3.39486        3.14932
H          1.06467       -2.58933        1.34198
H          4.41412       -0.21623        0.35132
C          3.89723        3.47445       -1.23549
C          2.79261        3.53337       -0.39386
C          2.09036        2.35815       -0.16272
C          2.48888        1.18081       -0.74475
C          3.58183        1.13875       -1.57566
C          4.32000        2.28917       -1.82735
H          4.44867        4.37445       -1.42663
H          1.23047        2.35554        0.48488
H          3.86999        0.19766       -2.01385
Pd        -0.08705       -0.05879        1.25200
C         -2.59816       -4.65500        1.32395
C         -2.44002       -4.81851       -0.20002
C         -0.98599       -5.19137       -0.53617
C         -3.35844       -5.96539       -0.66339
H         -3.62103       -4.37635        1.57621
H         -2.36276       -5.58374        1.84330
H         -1.93878       -3.88017        1.71210
H         -0.69031       -6.11213       -0.03366
H         -0.86867       -5.33977       -1.60912
H         -0.29751       -4.40469       -0.23151
H         -3.10224       -6.89455       -0.15440
H         -4.40270       -5.74488       -0.44269
H         -3.25967       -6.13956       -1.73468
C         -6.02587       -3.35551       -3.64127
C         -5.28024       -2.02226       -3.43706
C         -4.73255       -1.55738       -4.79697
C         -6.28571       -0.98345       -2.90554
H         -6.43797       -3.72201       -2.70119
H         -6.85435       -3.23182       -4.33867
H         -5.36363       -4.11791       -4.05103
H         -4.04286       -2.29532       -5.20508
H         -5.54015       -1.42125       -5.51609
H         -4.20365       -0.60932       -4.70602
H         -6.65272       -1.27167       -1.92065
H         -5.82761        0.00095       -2.82105
H         -7.14326       -0.89303       -3.57204
C         -1.80646        5.21235        2.20419
C         -2.47892        4.11592        3.04823
C         -1.43214        3.44652        3.96011
C         -3.55274        4.77213        3.93678
H         -2.52724        5.68169        1.53494
H         -1.37743        5.98763        2.83875
H         -1.00506        4.79909        1.59557
H         -0.99310        4.16869        4.64799
H         -1.88837        2.65099        4.54869
H         -0.62321        3.00466        3.37996
H         -4.30978        5.27232        3.33307
H         -4.04502        4.03245        4.56787
H         -3.10708        5.52015        4.59241
C         -7.21992        2.09292        2.40239
C         -6.43655        1.34104        1.30901
C         -6.58332       -0.17215        1.56414
C         -7.03844        1.69688       -0.06137
H         -8.26631        1.78783        2.40696
H         -6.80973        1.88436        3.39036
H         -7.19399        3.16964        2.23628
H         -7.63353       -0.45996        1.60822
H         -6.11374       -0.75877        0.77570
H         -6.11690       -0.44896        2.50936
H         -6.52301        1.17043       -0.86293
H         -8.09400        1.42954       -0.10722
H         -6.95058        2.76576       -0.25511
C          2.94487       -5.59544        2.81322
C          2.27875       -4.26291        3.19871
C          0.75914       -4.39097        2.97846
C          2.52404       -3.96628        4.69009
H          4.01863       -5.56747        2.99527
H          2.52900       -6.42102        3.39054
H          2.79007       -5.81071        1.75601
H          0.24704       -3.46256        3.23120
H          0.53603       -4.64066        1.94249
H          0.34133       -5.17997        3.60354
H          2.07758       -4.73583        5.31954
H          3.58822       -3.92637        4.91861
H          2.08588       -3.00736        4.96645
C          6.42384        0.10300        2.22931
C          6.29391       -1.39956        1.91044
C          7.01150       -1.71331        0.58633
C          6.97549       -2.19332        3.04178
H          7.46746        0.38213        2.37313
H          6.02587        0.71936        1.42441
H          5.87912        0.35051        3.14015
H          8.06769       -1.45009        0.64083
H          6.93822       -2.77479        0.35037
H          6.56845       -1.15835       -0.23891
H          8.01761       -1.89314        3.15089
H          6.47838       -2.01856        3.99582
H          6.96345       -3.26330        2.83549
C          2.10773        4.59914        1.77920
C          2.32777        4.83671        0.27167
C          1.01071        5.28411       -0.38191
C          3.36740        5.96280        0.11067
H          3.02238        4.23831        2.24898
H          1.81143        5.52054        2.28017
H          1.32771        3.86160        1.95973
H          0.63024        6.19399        0.08185
H          1.15741        5.48118       -1.44356
H          0.24974        4.51083       -0.28923
H          3.04515        6.86332        0.63342
H          4.33151        5.66597        0.52335
H          3.50536        6.22645       -0.93762
C          6.33465        3.55461       -2.74110
C          5.58286        2.20977       -2.69989
C          5.19203        1.82513       -4.13645
C          6.53368        1.14401       -2.12310
H          7.24073        3.47236       -3.34135
H          5.71853        4.33677       -3.18417
H          6.62918        3.86940       -1.74005
H          6.07382        1.74388       -4.77185
H          4.67446        0.86685       -4.16001
H          4.53539        2.57887       -4.56964
H          6.07954        0.15459       -2.14979
H          7.46067        1.09732       -2.69435
H          6.78655        1.37306       -1.08808
H         -0.51304       -0.76676       -5.71216
H          1.15082        0.81057       -5.57754
H         -1.56450       -0.03464       -4.49502
H         -1.87902       -1.66993       -5.06787
H          2.12490        0.15977       -4.25504
H          2.41794        1.79145       -4.85150
