64
-97.22071856
Cl        -1.26203       -0.22099       -2.85788
Cl         1.86909       -0.56640       -2.92369
P          1.95742       -0.70980        0.33316
C          2.04657       -2.46418        0.93004
C          3.77989       -0.38598        0.15677
P         -1.26728       -0.33311        0.39178
C          1.20272        0.43231        1.54800
C         -0.23817        0.59144        1.59632
C         -0.54622        1.60043        2.59929
C          0.71220        2.08835        3.13703
C          1.79457        1.35901        2.49881
H         -1.54350        1.91319        2.91416
H          0.82388        2.84524        3.91688
Pd         0.30631       -0.68874       -1.31816
H          2.86227        1.48562        2.68832
C         -5.13592        1.71096       -0.89481
C         -4.83614        0.43206       -1.31971
C         -3.65755       -0.16959       -0.91540
C         -2.78347        0.50803       -0.09625
C         -3.08665        1.77908        0.33530
C         -4.26235        2.38560       -0.06552
H         -6.05229        2.18262       -1.21035
H         -5.51586       -0.09648       -1.96771
H         -3.40861       -1.16675       -1.24327
H         -2.40092        2.29699        0.98150
H         -4.49510        3.38347        0.26848
C         -2.43747       -4.40323        2.03143
C         -2.02375       -4.28818        0.71853
C         -1.67173       -3.04977        0.21306
C         -1.73187       -1.94097        1.02546
C         -2.15141       -2.04661        2.33144
C         -2.50449       -3.28452        2.83899
H         -2.71172       -5.36808        2.42588
H         -1.97625       -5.16058        0.08767
H         -1.35643       -2.94228       -0.81244
H         -2.19340       -1.16198        2.94747
H         -2.82993       -3.37438        3.86236
C          4.16962        0.52693       -0.98465
H          4.08847        0.05197        1.11529
C          4.35454       -1.80672        0.02850
H          5.41943       -1.81649        0.30725
C          3.54557       -2.81994        0.87829
H          4.32302       -2.10384       -1.02910
C          1.45263       -2.58212        2.31708
H          1.47804       -3.06015        0.20375
H          3.94123       -2.82982        1.90278
H          3.68441       -3.84468        0.50319
H          0.41042       -2.26153        2.33390
H          1.49628       -3.60959        2.68576
H          1.99582       -1.95033        3.02274
H          5.25496        0.61428       -1.06639
H          3.80265        0.14040       -1.93485
H          3.76846        1.53126       -0.85341
Fe         0.65169        2.33764        1.11094
C          1.95844        3.42642       -0.06337
C          0.96511        4.27922        0.56758
C         -0.35278        3.85686        0.12480
C         -0.17370        2.69923       -0.73137
C          1.24701        2.43972       -0.85399
H          3.04156        3.52241        0.03773
H          1.17690        5.13520        1.21271
H         -1.30187        4.33189        0.38217
H         -0.95754        2.15133       -1.25836
H          1.68403        1.67515       -1.49968
