111
-148.55566265
P         -2.70856       -1.77668        0.28568
P          0.12535       -0.52801       -0.34840
C         -1.95744       -2.03764       -1.34377
C         -0.69995       -1.53425       -1.59857
C         -3.66841       -3.25500        0.84918
C         -2.91086       -4.04501        1.89392
C         -2.63626       -2.72528       -2.32938
H         -3.62724       -3.09994       -2.13236
C         -2.04726       -2.91377       -3.56783
H         -2.57632       -3.45105       -4.33795
C         -0.78523       -2.41076       -3.81964
H         -0.32874       -2.55380       -4.78522
C         -0.11173       -1.71295       -2.83336
H          0.86516       -1.29519       -3.02054
Pd        -1.01537       -0.96696        1.62493
Cl        -2.39911       -1.15023        3.37896
Cl         0.73508       -0.11438        2.74672
C         -4.98851       -2.63312        1.34115
C         -4.03816       -0.48823        0.30963
H         -3.48074       -4.91550        2.22711
H         -1.95052       -4.39482        1.50771
H         -2.70593       -3.43117        2.77196
H         -4.90199       -2.42973        2.41750
H         -5.81384       -3.35456        1.24162
H         -3.81036        0.16567        1.16225
C         -5.31107       -1.30955        0.58974
C         -4.07124        0.30349       -0.97971
H         -3.84711       -3.86980       -0.04198
H         -5.79905       -1.54198       -0.36680
H         -6.03924       -0.70623        1.15288
H         -3.13080        0.83301       -1.14243
H         -4.22826       -0.35562       -1.83547
H         -4.87669        1.04149       -0.97527
C         -1.37819        3.73641       -0.88360
C         -0.83096        3.33366        0.36336
C         -0.36371        2.03721        0.48129
C         -0.35715        1.18185       -0.58856
C         -0.76012        1.60886       -1.82668
C         -1.23643        2.89515       -2.01957
O         -2.14271        4.92812       -0.97145
C         -0.73986        4.24044        1.60141
H         -0.02306        1.66478        1.43188
H         -0.72866        0.91151       -2.64612
C         -1.59039        3.32166       -3.45386
C          4.64640       -1.07976       -0.24839
C          3.80964       -2.18323       -0.55409
C          2.44026       -1.97712       -0.59874
C          1.89960       -0.75233       -0.30393
C          2.69743        0.28847        0.09289
C          4.07241        0.14569        0.17593
O          6.05442       -1.19338       -0.39733
C          4.37109       -3.58018       -0.86233
H          1.77140       -2.77446       -0.87325
H          2.22620        1.22207        0.34573
C          4.91200        1.31296        0.71848
C         -0.97340        5.72251        1.26208
C         -1.77247        3.78104        2.64484
C          0.67531        4.13369        2.21096
C         -0.44484        2.91370       -4.40636
C         -2.88422        2.61573       -3.89338
C         -1.76379        4.84467       -3.58591
C         -3.51834        4.71683       -0.69851
H         -0.80851        6.35574        2.13351
H         -0.29669        6.04705        0.47239
H         -1.99126        5.89304        0.91972
H         -2.78545        3.85068        2.25312
H         -1.59968        2.74502        2.93491
H         -1.71691        4.39418        3.54382
H          1.43186        4.38898        1.46967
H          0.78767        4.81503        3.05384
H          0.88440        3.12966        2.57623
H         -0.63637        3.26871       -5.41868
H          0.50127        3.33995       -4.07392
H         -0.32735        1.83261       -4.45883
H         -3.14648        2.88549       -4.91603
H         -2.77126        1.53276       -3.85135
H         -3.71937        2.88743       -3.25073
H         -1.91754        5.13396       -4.62526
H         -2.62166        5.19505       -3.01700
H         -0.88182        5.36535       -3.21456
H         -3.64084        4.28215        0.29226
H         -4.04428        5.67077       -0.74187
H         -3.94599        4.03706       -1.43347
C          6.53580       -0.80403       -1.67745
C          5.64910       -3.85387       -0.04854
C          3.35122       -4.67717       -0.48161
C          4.66732       -3.68846       -2.36574
C          6.17445        0.80212        1.43632
C          5.29961        2.24481       -0.43936
C          4.10279        2.12427        1.75625
H          6.44839       -3.17008       -0.32363
H          5.45816       -3.73325        1.01727
H          6.01106       -4.86795       -0.21612
H          3.79460       -5.66791       -0.57891
H          3.02119       -4.55830        0.55009
H          2.47518       -4.65477       -1.12818
H          3.76189       -3.52407       -2.94956
H          5.40057       -2.94848       -2.67708
H          5.05703       -4.67461       -2.61695
H          6.83990        0.28484        0.74979
H          6.73373        1.62546        1.87989
H          5.90777        0.10588        2.23077
H          5.88596        1.71932       -1.18934
H          4.41025        2.63902       -0.93059
H          5.88914        3.08827       -0.08091
H          3.27898        2.66235        1.29076
H          4.73298        2.86613        2.24613
H          3.69364        1.47022        2.52591
H          5.70714       -0.50901       -2.32240
H          7.22851        0.03045       -1.57046
H          7.07323       -1.63560       -2.13303
