75
-122.81817181
P          1.83626       -0.57800       -0.02670
C          1.72022       -1.55765       -1.53206
C          1.90119       -2.91938       -1.44628
C          1.89973       -3.68806       -2.59646
C          1.72142       -3.08576       -3.82607
C          1.53624       -1.72001       -3.90754
C          1.53374       -0.95618       -2.75546
H          1.37262        0.10764       -2.80266
H          1.38599       -1.25014       -4.86557
H          1.71890       -3.68347       -4.72289
H          2.04088       -4.75438       -2.53191
H          2.05751       -3.37315       -0.48033
C          3.15521       -1.31306        0.95417
C          4.43023       -1.32356        0.43558
C          5.46032       -1.90581        1.15203
C          5.20312       -2.48300        2.37953
C          3.91951       -2.48505        2.88801
C          2.89197       -1.90260        2.16913
H          1.88554       -1.90167        2.55515
H          3.71755       -2.93846        3.84453
H          6.00471       -2.93587        2.93993
H          6.46028       -1.91118        0.75040
H          4.61164       -0.88784       -0.53459
C          2.21006        1.13744       -0.43049
C          3.36854        1.78402       -0.06816
C          3.53379        3.13691       -0.32995
C          2.50182        3.82785       -0.96404
C          1.32907        3.19670       -1.31470
C          1.17893        1.82583       -1.05176
O         -0.00964        1.14838       -1.37004
C         -1.19979        1.82567       -1.05927
C         -1.35157        3.19475       -1.33093
C         -2.53012        3.82434       -0.99692
C         -3.56610        3.13469       -0.36770
C         -3.39589        1.78599       -0.08832
C         -2.23103        1.14172       -0.43372
P         -1.85525       -0.56135        0.01169
C         -3.19575       -1.27316        0.97878
C         -2.98397       -1.76116        2.24757
C         -4.03319       -2.32054        2.95327
C         -5.28681       -2.39541        2.37954
C         -5.49254       -1.91686        1.10095
C         -4.44073       -1.35758        0.39767
H         -4.58160       -0.99321       -0.60811
H         -6.46909       -1.98062        0.64980
H         -6.10531       -2.83029        2.92966
H         -3.87176       -2.69523        3.95069
H         -2.00165       -1.69687        2.68630
C         -1.68790       -1.58222       -1.45545
C         -1.79411       -1.02927       -2.71085
C         -1.75085       -1.84464       -3.82663
C         -1.60300       -3.20925       -3.67533
C         -1.49446       -3.75931       -2.41334
C         -1.53981       -2.94113       -1.29869
H         -1.47314       -3.35591       -0.30501
H         -1.37529       -4.82376       -2.29561
H         -1.56515       -3.84563       -4.54432
H         -1.82878       -1.41447       -4.81152
H         -1.90631        0.03776       -2.81192
Pd         0.00253       -0.05612        1.38730
Cl        -1.54801        0.92460        2.70433
Cl         1.61205        0.83955        2.69592
H         -4.17052        1.24539        0.42619
C         -4.83491        3.82258       -0.00850
H         -4.70325        4.90483        0.02331
H         -5.18707        3.50299        0.97321
H         -5.61603        3.59959       -0.73638
H         -2.64236        4.87168       -1.21498
S         -0.00750        4.07346       -2.08476
H          2.61341        4.87691       -1.17405
C          4.79631        3.82832        0.04429
H          4.14160        1.24270        0.44744
H          5.55790        3.68654       -0.72353
H          4.63758        4.90031        0.16798
H          5.18961        3.44152        0.98534
