171
-217.84605032
P         -1.56932        0.38322       -0.45038
P          1.63123       -0.35829       -0.26658
C         -0.80307        1.38110       -1.73218
C          1.03587       -1.28439       -1.68678
C          0.06212        0.80711       -2.65618
C          0.72007        1.64289       -3.57900
C          0.45462        3.00203       -3.57067
C         -0.43243        3.54723       -2.66694
C         -1.05189        2.73184       -1.74016
C          1.29239       -2.63302       -1.73383
C          0.79538       -3.39977       -2.76944
C          0.01924       -2.80933       -3.74391
C         -0.25213       -1.45172       -3.71497
C          0.28572       -0.66376       -2.67900
Cl         1.43832        0.29276        2.91346
Cl        -1.76700       -0.39949        2.72361
C         -1.09812       -0.85317       -4.78412
C          1.68240        1.09055       -4.57184
H         -0.63678        4.60539       -2.67872
H         -1.73469        3.15117       -1.01902
H          1.88433       -3.08938       -0.95701
H          1.00678       -4.45581       -2.81045
H          0.95316        3.63570       -4.28471
H         -0.38688       -3.40577       -4.54347
C         -3.69391       -3.35069       -1.85506
C         -2.76030       -3.45587       -0.83077
C         -2.08892       -2.30265       -0.44856
C         -2.36093       -1.10268       -1.05678
C         -3.28930       -1.01300       -2.06408
C         -3.97786       -2.14465       -2.48514
H         -4.23134       -4.22667       -2.16537
H         -1.35486       -2.33524        0.33777
H         -3.47925       -0.04944       -2.50571
C         -4.54713        2.76854        2.00789
C         -3.19699        3.09133        2.09291
C         -2.30554        2.37414        1.30635
C         -2.74963        1.36637        0.48716
C         -4.08416        1.05471        0.42314
C         -5.01409        1.75443        1.17900
H         -5.24981        3.31130        2.61013
H         -1.25016        2.58374        1.35571
H         -4.40324        0.24342       -0.20741
C          4.26802       -2.90085        2.40898
C          2.91663       -3.21142        2.30940
C          2.13557       -2.44153        1.45856
C          2.68520       -1.39722        0.75728
C          4.01957       -1.09882        0.87388
C          4.84280       -1.85258        1.70034
H          4.89343       -3.47746        3.06420
H          1.08141       -2.64143        1.36307
H          4.40990       -0.25926        0.32717
C          3.85844        3.46683       -1.18771
C          2.81540        3.50102       -0.26992
C          2.12211        2.32116       -0.03733
C          2.47817        1.16292       -0.68208
C          3.51660        1.14253       -1.57992
C          4.23051        2.30393       -1.85189
H          4.41087        4.36575       -1.38581
H          1.30282        2.29937        0.66002
H          3.76861        0.21002       -2.05563
Pd        -0.07773       -0.03991        1.29093
C         -2.40015       -4.58695        1.39153
C         -2.43921       -4.78778       -0.13732
C         -1.06965       -5.28314       -0.62776
C         -3.49933       -5.86106       -0.45212
H         -2.23181       -5.53374        1.90440
H         -1.60149       -3.90908        1.68835
H         -3.34210       -4.17197        1.74933
H         -0.79004       -6.21583       -0.13823
H         -1.08698       -5.45681       -1.70341
H         -0.29552       -4.54545       -0.42171
H         -3.50738       -6.11047       -1.51279
H         -3.29336       -6.78020        0.09633
H         -4.49505       -5.52003       -0.16894
C         -5.15753       -0.68591       -4.20572
C         -5.07533       -2.08178       -3.55697
C         -6.43149       -2.39548       -2.89908
C         -4.78434       -3.11508       -4.66198
H         -5.41921        0.07503       -3.47086
H         -4.20920       -0.40984       -4.66556
H         -5.92076       -0.66552       -4.98353
H         -7.24015       -2.34718       -3.62813
H         -6.43477       -3.39276       -2.46033
H         -6.64878       -1.68111       -2.10511
H         -3.80852       -2.93698       -5.11203
H         -4.79083       -4.13120       -4.27000
H         -5.53367       -3.06126       -5.45159
C         -1.67894        3.49567        4.04190
C         -2.65327        4.16099        3.05055
C         -3.78086        4.83888        3.85174
C         -1.91141        5.23979        2.24167
H         -2.18158        2.71035        4.60587
H         -0.83432        3.04203        3.52483
H         -1.28424        4.22321        4.75070
H         -4.32119        4.11326        4.45938
H         -3.37603        5.59494        4.52442
H         -4.49055        5.33339        3.18872
H         -1.06732        4.81345        1.70330
H         -2.57626        5.70109        1.51168
H         -1.52771        6.02378        2.89430
C         -7.37819        2.24650        1.98758
C         -6.49466        1.35804        1.09143
C         -6.65109       -0.10591        1.54463
C         -6.97405        1.50158       -0.36533
H         -8.42568        1.95615        1.90703
H         -7.09128        2.15564        3.03503
H         -7.30290        3.29423        1.69707
H         -6.28855       -0.23316        2.56443
H         -7.69589       -0.41453        1.51542
H         -6.08601       -0.78173        0.90354
H         -6.84817        2.52680       -0.71282
H         -6.41134        0.85089       -1.03356
H         -8.02820        1.24047       -0.45690
C          1.16542       -3.70396        4.02906
C          2.25243       -4.32520        3.13070
C          3.26874       -5.05896        4.02591
C          1.61158       -5.34899        2.17685
H          0.39358       -3.21353        3.43713
H          0.68249       -4.46459        4.64203
H          1.59745       -2.95623        4.69367
H          4.05358       -5.52324        3.42904
H          3.73214       -4.37413        4.73583
H          2.78043       -5.84689        4.59925
H          0.84179       -4.88407        1.56409
H          2.35947       -5.77597        1.50897
H          1.14733       -6.16401        2.73184
C          6.60510       -1.15141        3.33674
C          6.33502       -1.53436        1.87039
C          6.77139       -0.36094        0.97003
C          7.16871       -2.77246        1.49248
H          6.35876       -1.97068        4.01118
H          7.65434       -0.89820        3.48761
H          6.00400       -0.28922        3.62506
H          6.22893        0.55033        1.22151
H          7.83462       -0.15427        1.09136
H          6.59709       -0.58854       -0.08148
H          8.23517       -2.56657        1.58262
H          6.93796       -3.61894        2.13809
H          6.96840       -3.07137        0.46372
C          1.10705        5.32042       -0.18524
C          2.39737        4.78755        0.45684
C          3.48821        5.87203        0.36012
C          2.14855        4.49181        1.95023
H          0.31445        4.57540       -0.13395
H          0.76003        6.22233        0.31860
H          1.27146        5.56064       -1.23536
H          3.21044        6.75236        0.93969
H          4.43840        5.50410        0.74703
H          3.63583        6.19507       -0.66996
H          1.91233        5.40627        2.49406
H          1.31574        3.80500        2.09163
H          3.03198        4.04620        2.40680
C          5.62866        0.96085       -3.50118
C          5.43621        2.32113       -2.80247
C          6.70686        2.63769       -1.99264
C          5.23087        3.39992       -3.88289
H          5.82836        0.17155       -2.77673
H          4.74525        0.68589       -4.07643
H          6.47343        0.99561       -4.18900
H          6.63436        3.61179       -1.51007
H          6.86381        1.89088       -1.21480
H          7.58736        2.64673       -2.63484
H          4.31421        3.21916       -4.44256
H          5.16340        4.39485       -3.44488
H          6.06070        3.40558       -4.58945
H         -0.53077       -0.73055       -5.70764
H          2.54064        1.75217       -4.69071
H         -1.48153        0.12467       -4.48960
H         -1.95569       -1.49040       -5.00152
H          1.21173        0.97619       -5.54915
H          2.05951        0.11520       -4.26124
