72
-98.10270757
Fe         0.00016        2.84092       -0.00685
P          1.81133       -0.00406       -0.05404
P         -1.81545       -0.02527        0.05750
C          1.39046        1.61153        0.70467
C          0.39456        1.82537        1.73884
C          0.33608        3.24788        2.01920
C          1.31875        3.91064        1.18203
C          1.99336        2.89786        0.38806
C         -1.41463        1.59786       -0.69518
C         -2.02894        2.87565       -0.36833
C         -1.35857        3.90069       -1.14978
C         -0.37288        3.25374       -1.99654
C         -0.42031        1.82804       -1.72754
C          3.16162       -0.76276        0.97412
C          4.36237        0.09976        0.55045
C          2.87101        0.32180       -1.55079
C          4.29059        0.48996       -0.95487
C         -3.15160       -0.80195       -0.97596
C         -4.36566        0.04349       -0.55548
C         -2.88477        0.28373        1.55097
C         -4.30382        0.43583        0.94979
H         -0.21007        1.04998        2.20563
H         -0.32009        3.73106        2.74610
H          1.53529        4.98116        1.17264
H          2.78961        3.07176       -0.33860
H         -2.82350        3.03752        0.36243
H          0.19014        1.06126       -2.20134
Cl         1.57973       -3.06067       -0.41463
Cl        -1.53480       -3.07610        0.44900
Pd         0.00553       -1.50199       -0.01657
H          3.30210       -1.79183        0.62346
C          2.87760       -0.75416        2.47818
H          2.51703        1.25568       -2.00342
C          2.80742       -0.81375       -2.57087
H          5.30790       -0.41474        0.78281
H          4.36505        1.00900        1.16956
H          4.65171        1.51859       -1.10180
H          4.98745       -0.13904       -1.52609
H         -1.58303        4.96951       -1.12993
H          0.27909        3.74879       -2.71979
H          3.83085       -0.70302        3.02261
H          3.63869       -0.70402       -3.28136
H         -3.27804       -1.83316       -0.62606
C         -2.86419       -0.78826       -2.47998
H         -2.54359        1.22071        2.00704
C         -2.81196       -0.85263        2.56906
H         -5.30310       -0.48459       -0.79012
H         -4.37972        0.95226       -1.17514
H         -4.67664        1.46063        1.09429
H         -4.99589       -0.20011        1.51919
H         -3.81648       -0.73490       -3.02588
H         -2.99967       -1.79919        2.04576
C          2.09261       -1.97100        2.94486
H          1.16574       -2.08714        2.38530
H          2.66359       -2.88900        2.79314
H          1.83582       -1.91465        4.00504
C          1.49769       -0.88986       -3.33552
H          1.32241        0.01787       -3.91603
H          1.47787       -1.73177       -4.03134
H          0.65547       -1.01114       -2.65669
C         -2.07906       -2.00357       -2.95088
H         -1.15033       -2.12051       -2.39456
H         -2.64910       -2.92230       -2.80005
H         -1.82499       -1.94463       -4.01159
C         -1.49897       -0.92226        3.32828
H         -1.47044       -1.76632        4.02119
H         -0.65943       -1.03561        2.64476
H         -1.32729       -0.01520        3.91091
H          2.35093        0.17336        2.73630
H          2.99895       -1.76004       -2.04846
H         -2.33711        0.14012       -2.73405
H         -3.64156       -0.74877        3.28237
