171
-217.84700168
P         -1.59225        0.37385       -0.33830
P          1.62320       -0.34646       -0.21750
C         -0.81330        1.39440       -1.59289
C          0.98092       -1.28272       -1.60764
C          0.02479        0.82871       -2.54757
C          0.68034        1.67876       -3.45906
C          0.44815        3.04312       -3.40057
C         -0.40344        3.58092       -2.45868
C         -1.02744        2.75022       -1.54913
C          1.20063       -2.63766       -1.64789
C          0.67419       -3.39533       -2.67514
C         -0.08233       -2.78580       -3.65387
C         -0.31565       -1.42050       -3.63115
C          0.23748       -0.64473       -2.59406
Cl         1.43605        0.39359        3.00306
Cl        -1.68521       -0.38581        2.88653
C         -1.13570       -0.80043       -4.70776
C          1.61692        1.14126       -4.48400
H         -0.57832        4.64390       -2.42794
H         -1.68451        3.16092       -0.79954
H          1.78856       -3.10519       -0.87501
H          0.85297       -4.45754       -2.70934
H          0.94938        3.68771       -4.10289
H         -0.50452       -3.37377       -4.45135
C         -3.69186       -3.28676       -1.95512
C         -2.75418       -3.44776       -0.94296
C         -2.11010       -2.31211       -0.46867
C         -2.37911       -1.08338       -1.01739
C         -3.29134       -0.94314       -2.03452
C         -3.97713       -2.05015       -2.52040
H         -4.23399       -4.14884       -2.29719
H         -1.40313       -2.37299        0.34027
H         -3.47431        0.04130       -2.43096
C         -4.67345        2.67954        2.07050
C         -3.32951        2.98865        2.24289
C         -2.39710        2.29758        1.47814
C         -2.80257        1.32722        0.59521
C         -4.13458        1.03103        0.44584
C         -5.10147        1.70535        1.17722
H         -5.39885        3.20536        2.66231
H         -1.34376        2.48957        1.58734
H         -4.42611        0.25215       -0.23618
C          4.37193       -2.80523        2.43496
C          3.03360       -3.17118        2.34259
C          2.21320       -2.43349        1.49894
C          2.71014       -1.36059        0.80147
C          4.03016       -1.00427        0.91940
C          4.89211       -1.72267        1.73547
H          5.02283       -3.37225        3.07192
H          1.17196       -2.68742        1.39612
H          4.39247       -0.14751        0.37907
C          3.94160        3.34395       -1.40861
C          2.88968        3.48075       -0.51166
C          2.17891        2.33840       -0.16530
C          2.49999        1.12794       -0.72638
C          3.52959        1.01169       -1.62781
C          4.28075        2.12576       -1.98347
H          4.53017        4.21000       -1.64874
H          1.37782        2.37840        0.55223
H          3.75100        0.03918       -2.03416
Pd        -0.05592       -0.06698        1.37445
C         -1.30974       -4.81560        0.63469
C         -2.49474       -4.83844       -0.34921
C         -2.16310       -5.83066       -1.48003
C         -3.75308       -5.30692        0.40187
H         -1.09959       -5.81593        1.01286
H         -0.40963       -4.44708        0.14380
H         -1.52258       -4.17867        1.49278
H         -2.99840       -5.94442       -2.16960
H         -1.30149       -5.48795       -2.05167
H         -1.93005       -6.81625       -1.07739
H         -4.00641       -4.60905        1.19979
H         -4.60931       -5.37277       -0.26873
H         -3.59897       -6.28941        0.84766
C         -4.83692       -2.94266       -4.71335
C         -5.08177       -1.92809       -3.57971
C         -5.12645       -0.51518       -4.19438
C         -6.43933       -2.21651       -2.91358
H         -3.85914       -2.78890       -5.16785
H         -4.87836       -3.96788       -4.34829
H         -5.59007       -2.84115       -5.49460
H         -4.17153       -0.25419       -4.64913
H         -5.89011       -0.45500       -4.96969
H         -5.36611        0.23525       -3.44168
H         -7.25396       -2.13068       -3.63245
H         -6.46521       -3.22208       -2.49480
H         -6.62812       -1.51302       -2.10291
C         -3.58500        5.37589        2.97733
C         -2.91511        4.02658        3.29528
C         -1.38908        4.23396        3.31673
C         -3.35793        3.53659        4.68603
H         -4.67104        5.29722        3.00645
H         -3.28742        6.13789        3.69750
H         -3.30055        5.72136        1.98353
H         -0.86869        3.30712        3.55782
H         -1.03587        4.59091        2.35062
H         -1.10804        4.97415        4.06568
H         -3.05823        4.24052        5.46214
H         -4.43980        3.42102        4.73919
H         -2.90700        2.57056        4.91265
C         -6.77568       -0.15414        1.32744
C         -6.57863        1.33474        0.98422
C         -6.97517        1.58340       -0.48294
C         -7.50038        2.17270        1.89043
H         -7.82067       -0.44451        1.22060
H         -6.18428       -0.79409        0.67351
H         -6.47170       -0.35514        2.35447
H         -8.02357        1.33791       -0.65140
H         -6.82525        2.62919       -0.75042
H         -6.37770        0.97644       -1.16187
H         -7.40471        3.23601        1.67134
H         -8.54428        1.89767        1.73998
H         -7.26590        2.01322        2.94273
C          1.15132       -3.91477        3.83424
C          2.44541       -4.35662        3.12106
C          3.42548       -4.87975        4.18924
C          2.13467       -5.49505        2.13470
H          0.38173       -3.61770        3.12381
H          0.74397       -4.72400        4.43987
H          1.34474       -3.06599        4.48979
H          2.97184       -5.68335        4.76929
H          4.33143       -5.27853        3.73358
H          3.70609       -4.08696        4.88249
H          1.68810       -6.34704        2.64701
H          1.44222       -5.16422        1.36263
H          3.04420       -5.83523        1.63991
C          7.15281       -2.16746        2.82027
C          6.36166       -1.28921        1.83241
C          6.42862        0.17215        2.31634
C          7.01332       -1.40357        0.44195
H          7.15573       -3.21023        2.50352
H          8.19047       -1.83987        2.88307
H          6.72751       -2.11062        3.82211
H          5.93731        0.27946        3.28314
H          7.46214        0.50091        2.42345
H          5.93706        0.84629        1.61582
H          6.96757       -2.42996        0.07848
H          6.50596       -0.77016       -0.28453
H          8.06019       -1.10232        0.47472
C          1.28847        4.81410        0.94034
C          2.57928        4.85249        0.10112
C          2.39501        5.89156       -1.02123
C          3.74742        5.27118        1.01100
H          1.39185        4.13641        1.78748
H          1.05473        5.80222        1.33647
H          0.44187        4.48843        0.33644
H          1.60283        5.58485       -1.70310
H          2.12818        6.86520       -0.61056
H          3.30701        6.01711       -1.60316
H          3.55498        6.23904        1.47358
H          3.89678        4.54001        1.80534
H          4.67698        5.34703        0.44771
C          5.39927        3.08156       -4.02851
C          5.50198        2.02804       -2.90872
C          5.60861        0.63567       -3.56124
C          6.77344        2.28145       -2.07861
H          4.48529        2.94786       -4.60549
H          5.39587        4.09361       -3.62626
H          6.24299        3.00281       -4.71395
H          6.45694        0.59263       -4.24418
H          5.75364       -0.14135       -2.81117
H          4.71089        0.40065       -4.13237
H          6.85886        1.55386       -1.27191
H          7.66678        2.20599       -2.69830
H          6.75821        3.27462       -1.63074
H         -1.99243       -1.42839       -4.95276
H          1.14975        1.12633       -5.46964
H         -0.54847       -0.66757       -5.61737
H         -1.51801        0.17557       -4.40583
H          1.93326        0.12549       -4.24325
H          2.51392        1.75739       -4.54854
