72
-98.09673180
Fe        -0.00633        2.80910        0.05373
P          1.85851       -0.03324       -0.02000
P         -1.85823       -0.06122        0.04899
C          1.39810        1.55819        0.76973
C          0.35145        1.74456        1.76017
C          0.29068        3.15402        2.10037
C          1.30111        3.84327        1.32110
C          1.99536        2.85849        0.50998
C         -1.41846        1.57211       -0.66624
C         -1.98487        2.86108       -0.29802
C         -1.30457        3.89004       -1.06767
C         -0.33067        3.23757       -1.92448
C         -0.41048        1.80800       -1.68391
C          3.17960       -0.87278        0.99123
C          4.47759       -0.64838        0.18422
C          2.86950        0.30592       -1.54410
C          4.28934        0.39094       -0.95110
C         -3.18717       -0.81050       -1.01104
C         -4.39622        0.04889       -0.60230
C         -2.94549        0.22691        1.53202
C         -4.34221        0.45187        0.90244
H         -0.30231        0.96408        2.14761
H         -0.39684        3.61313        2.81374
H          1.51633        4.91333        1.35355
H          2.81147        3.06010       -0.18642
H         -2.77578        3.02530        0.43691
H          0.18853        1.04078       -2.16938
Cl         1.53224       -3.06373       -0.52244
Cl        -1.52160       -3.07153        0.39231
Pd         0.01381       -1.47098       -0.03066
H          2.92125       -1.93833        1.01896
C          3.26217       -0.33969        2.41899
H          2.54656        1.26793       -1.95995
C          2.76696       -0.79652       -2.59905
H          4.82076       -1.60101       -0.24470
H          5.28205       -0.33051        0.86231
H          4.47183        1.40188       -0.55773
H          5.03754        0.24115       -1.74405
H         -1.50521        4.96330       -1.02371
H          0.33340        3.73208       -2.63727
H          4.20832       -0.66709        2.87210
H          3.60063       -0.68951       -3.30692
H         -3.33131       -1.84298       -0.67157
C         -2.87204       -0.78822       -2.50874
H         -2.58331        1.13191        2.03397
C         -2.94265       -0.95058        2.50500
H         -5.33701       -0.47173       -0.83999
H         -4.39800        0.95350       -1.22828
H         -4.65883        1.49772        1.02938
H         -5.08011       -0.13711        1.46511
H         -3.81376       -0.73003       -3.07222
H         -3.20968       -1.85964        1.95042
C          2.10110       -0.78670        3.28995
H          1.15154       -0.46505        2.86728
H          2.06202       -1.87474        3.37062
H          2.16470       -0.38167        4.30243
C          1.45652       -0.81901       -3.36519
H          1.29637        0.11474       -3.90753
H          1.42453       -1.63007       -4.09637
H          0.61193       -0.95899       -2.69292
C         -2.07973       -2.00237       -2.97089
H         -1.16353       -2.12551       -2.39519
H         -2.65500       -2.92066       -2.83840
H         -1.80292       -1.93711       -4.02551
C         -1.62926       -1.15479        3.23973
H         -1.68085       -1.98846        3.94379
H         -0.82062       -1.37507        2.54406
H         -1.34791       -0.26568        3.80690
H          3.32260        0.75589        2.38419
H          2.93464       -1.76270       -2.10617
H         -2.33839        0.14071       -2.74686
H         -3.75259       -0.81046        3.23455
