171
-217.84525127
P         -1.57886        0.40740       -0.43093
P          1.59968       -0.36740       -0.28321
C         -0.81109        1.42652       -1.69741
C          0.98849       -1.25984       -1.71721
C          0.03970        0.86235       -2.64103
C          0.70477        1.71042       -3.54770
C          0.46454        3.07341       -3.50145
C         -0.40612        3.61037       -2.57738
C         -1.03598        2.78150       -1.67016
C          1.22874       -2.61012       -1.78987
C          0.72177       -3.35019       -2.84005
C         -0.04721       -2.73114       -3.80260
C         -0.30240       -1.37107       -3.74703
C          0.24555       -0.61032       -2.69616
Cl         1.47591        0.30361        2.88995
Cl        -1.72792       -0.38485        2.77475
C         -1.14088       -0.74049       -4.80358
C          1.65113        1.16992       -4.56215
H         -0.59090        4.67201       -2.55929
H         -1.71017        3.19530       -0.93846
H          1.81495       -3.08774       -1.02131
H          0.92048       -4.40764       -2.90215
H          0.96997        3.71662       -4.20202
H         -0.46046       -3.30690       -4.61357
C         -3.70007       -3.32135       -1.85330
C         -2.75909       -3.43269       -0.83652
C         -2.08611       -2.28147       -0.45097
C         -2.36413       -1.07741       -1.04862
C         -3.30182       -0.98115       -2.04661
C         -3.99153       -2.11083       -2.47111
H         -4.23764       -4.19597       -2.16727
H         -1.34711       -2.31863        0.33054
H         -3.49969       -0.01371       -2.47617
C         -4.56343        2.73965        2.06859
C         -3.22404        3.11231        2.10530
C         -2.33185        2.40808        1.30790
C         -2.76289        1.36373        0.52891
C         -4.08491        0.99757        0.51985
C         -5.01632        1.68217        1.28747
H         -5.26923        3.28127        2.66809
H         -1.28603        2.66386        1.30502
H         -4.39256        0.15954       -0.08087
C          4.25752       -2.97286        2.31388
C          2.89505       -3.24790        2.26353
C          2.10268       -2.46350        1.43609
C          2.65223       -1.43573        0.71120
C          3.99693       -1.17268        0.77979
C          4.83122       -1.94110        1.57915
H          4.88462       -3.56879        2.94843
H          1.04151       -2.63821        1.37815
H          4.39876       -0.34738        0.21850
C          3.92569        3.41131       -1.14865
C          2.89740        3.45273       -0.21458
C          2.17742        2.28729        0.00642
C          2.47789        1.13958       -0.68298
C          3.49526        1.11302       -1.60454
C          4.24573        2.25647       -1.85334
H          4.51152        4.29408       -1.32241
H          1.39003        2.26794        0.74031
H          3.70726        0.18713       -2.11170
Pd        -0.07858       -0.01443        1.30059
C         -2.40711       -4.57634        1.37950
C         -2.43587       -4.76798       -0.15067
C         -1.06174       -5.25484       -0.63688
C         -3.48912       -5.84412       -0.47856
H         -2.23162       -5.52448        1.88744
H         -1.61786       -3.89133        1.68491
H         -3.35544       -4.17366        1.73454
H         -0.29130       -4.51554       -0.42309
H         -0.78100       -6.18938       -0.15153
H         -1.07339       -5.42270       -1.71347
H         -3.28054       -6.76662        0.06322
H         -4.48780       -5.51079       -0.19665
H         -3.49148       -6.08465       -1.54133
C         -4.79522       -3.05175       -4.66057
C         -5.09568       -2.04317       -3.53563
C         -5.20096       -0.63663       -4.15725
C         -6.44431       -2.38825       -2.87768
H         -3.82517       -2.84996       -5.11308
H         -4.78251       -4.07446       -4.28619
H         -5.55029       -2.99622       -5.44456
H         -5.46497        0.10696       -3.40560
H         -4.26044       -0.34022       -4.62043
H         -5.97151       -0.61116       -4.92765
H         -6.43302       -3.39453       -2.46020
H         -6.66663       -1.69372       -2.06774
H         -7.25731       -2.33497       -3.60154
C         -2.39956        5.47102        2.04453
C         -2.71229        4.27812        2.96356
C         -1.43359        3.85149        3.71401
C         -3.75726        4.71352        4.00930
H         -3.29763        5.80198        1.52328
H         -2.00813        6.31331        2.61469
H         -1.66083        5.19990        1.29185
H         -0.61587        3.63878        3.02735
H         -1.09648        4.63853        4.38823
H         -1.61597        2.95458        4.30552
H         -4.65173        5.11384        3.53296
H         -4.04756        3.87478        4.64183
H         -3.35586        5.49452        4.65501
C         -6.57217       -0.23063        1.73145
C         -6.48348        1.23161        1.25465
C         -7.01450        1.33782       -0.18723
C         -7.36865        2.09984        2.16877
H         -7.60573       -0.57609        1.74211
H         -6.00577       -0.89531        1.07999
H         -6.17100       -0.33087        2.73973
H         -8.06018        1.03555       -0.24155
H         -6.93925        2.36246       -0.55074
H         -6.44828        0.70061       -0.86544
H         -7.34713        3.14440        1.85863
H         -8.40574        1.76645        2.13243
H         -7.03935        2.03924        3.20590
C          1.53967       -5.35708        2.19348
C          2.23210       -4.33886        3.11641
C          1.18724       -3.68490        4.04139
C          3.25844       -5.08686        3.98822
H          1.07581       -6.15668        2.77077
H          0.76103       -4.88072        1.60117
H          2.25651       -5.80632        1.50645
H          0.70824       -4.42843        4.67796
H          1.65568       -2.93943        4.68349
H          0.40721       -3.18469        3.46868
H          2.76963       -5.85571        4.58650
H          4.01228       -5.57766        3.37290
H          3.76059       -4.40539        4.67464
C          7.09562       -2.55897        2.56667
C          6.32717       -1.60096        1.63679
C          6.49700       -0.16348        2.16399
C          6.92660       -1.70589        0.22176
H          8.15582       -2.30710        2.59023
H          6.72043       -2.49929        3.58813
H          7.00908       -3.59034        2.22522
H          7.55099        0.10389        2.23700
H          6.01483        0.55942        1.50674
H          6.05240       -0.06221        3.15377
H          7.99365       -1.48436        0.23237
H          6.79374       -2.71056       -0.17907
H          6.44891       -1.00686       -0.46368
C          1.11105        5.13969        0.26192
C          2.55030        4.71040        0.59377
C          3.49901        5.87950        0.26857
C          2.66164        4.39403        2.09777
H          0.82089        6.01710        0.83956
H          1.01830        5.38504       -0.79544
H          0.40450        4.34127        0.48294
H          3.24167        6.76065        0.85627
H          4.53272        5.62040        0.49688
H          3.43519        6.15562       -0.78379
H          2.43789        5.27463        2.69957
H          1.96847        3.60690        2.39147
H          3.66873        4.06057        2.34699
C          5.57220        0.91472       -3.56300
C          5.44711        2.25351       -2.80932
C          6.73315        2.47435       -1.99190
C          5.29092        3.38302       -3.84511
H          5.74061        0.08861       -2.87256
H          4.67351        0.70315       -4.14116
H          6.41317        0.93845       -4.25591
H          7.61221        2.46531       -2.63605
H          6.70928        3.43089       -1.47084
H          6.85356        1.69025       -1.24443
H          5.27448        4.36207       -3.36823
H          6.11718        3.37584       -4.55581
H          4.36403        3.26925       -4.40585
H         -1.99745       -1.36996       -5.04606
H          1.17807        1.10921       -5.54314
H         -0.56716       -0.59073       -5.71913
H         -1.52555        0.22841       -4.48228
H          1.99930        0.17217       -4.29168
H          2.52819        1.81096       -4.65447
