75
-122.81172712
P          1.92909       -0.53075        0.16878
C          1.63586       -1.58556       -1.25437
C          1.92728       -1.13850       -2.52265
C          1.81341       -2.00118       -3.59724
C          1.41354       -3.30680       -3.39106
C          1.12308       -3.75054       -2.11604
C          1.23877       -2.88591       -1.04235
H          1.03675       -3.22195       -0.03722
H          0.80782       -4.76847       -1.95628
H          1.32079       -3.97917       -4.22823
H          2.03561       -1.65395       -4.59281
H          2.24654       -0.11877       -2.66471
C          3.37580       -1.21654        1.00528
C          4.30854       -1.87976        0.23911
C          5.43845       -2.41402        0.83184
C          5.63090       -2.27767        2.19197
C          4.69940       -1.60520        2.95694
C          3.57410       -1.07275        2.35843
H          2.85638       -0.52234        2.94034
H          4.85163       -1.48974        4.01755
H          6.51049       -2.69316        2.65609
H          6.16612       -2.93562        0.23208
H          4.14788       -1.97858       -0.82263
C          2.27877        1.15737       -0.33399
C          3.44110        1.80540        0.01193
C          3.61935        3.14637       -0.29931
C          2.58098        3.82862       -0.93222
C          1.40677        3.19252       -1.27031
C          1.25528        1.82530       -0.98949
O          0.07786        1.13618       -1.32344
C         -1.12797        1.80322       -1.05180
C         -1.27683        3.17537       -1.30850
C         -2.46254        3.79860       -0.98893
C         -3.51793        3.09411       -0.41141
C         -3.35358        1.74063       -0.15302
C         -2.18106        1.10189       -0.48250
P         -1.82959       -0.62876       -0.11700
C         -3.14699       -1.36947        0.86278
C         -2.87110       -2.00172        2.05330
C         -3.89491       -2.58769        2.77469
C         -5.18794       -2.54718        2.29255
C         -5.45817       -1.92868        1.08827
C         -4.43184       -1.34284        0.36951
H         -4.62426       -0.87871       -0.58515
H         -6.46554       -1.90483        0.70630
H         -5.98663       -3.00257        2.85503
H         -3.68256       -3.07399        3.71262
H         -1.85727       -2.03311        2.41814
C         -1.77016       -1.54560       -1.66751
C         -1.39408       -0.92251       -2.83522
C         -1.43812       -1.61136       -4.03273
C         -1.85253       -2.92807       -4.05247
C         -2.21930       -3.55545       -2.87845
C         -2.18022       -2.85963       -1.68354
H         -2.48016       -3.33265       -0.76212
H         -2.53965       -4.58420       -2.89242
H         -1.88280       -3.46882       -4.98427
H         -1.14053       -1.12326       -4.94617
H         -1.04857        0.09662       -2.80126
Pd        -0.06854       -0.07667        1.37857
Cl        -1.72455        0.80329        2.64861
Cl         1.35579        0.95539        2.79860
H         -4.13920        1.19368        0.33654
C         -4.77386        3.78965       -0.02382
H         -4.72075        4.13396        1.00974
H         -5.63426        3.12520       -0.11366
H         -4.95670        4.65694       -0.65949
H         -2.56731        4.85192       -1.18059
S          0.07086        4.06818       -2.03920
H          2.68856        4.87650       -1.15043
C          4.86348        3.85663        0.09894
H          4.20653        1.27108        0.54779
H          5.72151        3.18324        0.08542
H          5.07963        4.68296       -0.57943
H          4.77007        4.26297        1.10679
