115
-277.94212855
P         -2.02718       -0.20943       -0.02850
P          1.67778        0.77228       -0.15642
C         -1.91029       -1.98903        0.25119
C         -0.70811       -2.57655        0.58544
H          0.13680       -1.97148        0.86844
C         -0.57009       -3.94604        0.49882
H          0.38810       -4.41937        0.64984
C         -1.63462       -4.72810        0.08446
C         -2.87188       -4.13818       -0.11882
H         -3.69355       -4.74952       -0.45539
C         -3.01261       -2.76908       -0.02343
H         -3.95800       -2.30217       -0.25317
C         -3.58399        0.42297        0.62620
C         -4.26912       -0.24293        1.61572
H         -3.86387       -1.15236        2.02974
C         -5.46047        0.26624        2.08867
H         -6.01288       -0.24816        2.85879
C         -5.97024        1.44428        1.57544
C         -5.27703        2.10425        0.58048
H         -5.69644        3.01164        0.17562
C         -4.08321        1.59652        0.10971
H         -3.54588        2.10732       -0.67239
C         -1.81187        0.34251       -1.75788
C         -1.25171        1.60582       -1.83625
H         -0.94764        2.10330       -0.93059
C         -0.92735        2.18271       -3.06431
C         -1.39311        1.55588       -4.21361
H         -1.18985        1.99854       -5.17439
C         -1.95767        0.29846       -4.14446
H         -2.19348       -0.22421       -5.05593
C         -2.06775       -0.37942       -2.93056
C          1.38210        0.26564       -1.88805
C          0.81207       -0.99098       -1.94424
H          0.55423       -1.48683       -1.02650
C          0.41372       -1.56142       -3.15203
C          0.81130       -0.92941       -4.32362
H          0.55358       -1.36768       -5.27326
C          1.38257        0.32665       -4.27936
H          1.56621        0.85386       -5.20027
C          1.56695        0.99750       -3.06977
C         -2.12047       -1.88954       -2.98550
H         -2.79086       -2.19073       -3.79830
H         -2.60706       -2.26033       -2.08639
C         -0.70934       -2.56455       -3.17063
H         -0.53116       -3.31873       -2.39694
H         -0.67101       -3.12839       -4.10948
C          0.19132        3.18647       -3.16037
H          0.09101        3.92297       -2.35662
H          0.07161        3.77310       -4.07831
C          1.61096        2.50896       -3.12496
H          2.19649        2.81934       -3.99839
H          2.18975        2.89055       -2.28743
C          2.27440        2.46671       -0.09867
C          1.38750        3.49667        0.12729
C          3.56479        2.72670       -0.51058
C          1.75530        4.79031       -0.17838
C          3.92424        4.02030       -0.83666
C          2.99779        5.04848       -0.73393
C          2.97017       -0.26207        0.56393
C          3.63830       -1.15371       -0.24343
C          3.31265       -0.14583        1.89041
C          4.64379       -1.93760        0.28222
H          3.37712       -1.23382       -1.28595
C          4.32113       -0.92463        2.41695
H          2.79235        0.56078        2.51519
C          4.98800       -1.83005        1.61633
H          5.17989       -2.63952       -0.33701
H          4.61077       -0.83878        3.45254
Pd        -0.22171        0.64195        1.21821
Cl        -1.72276        0.26456        2.85564
Cl         1.14014        1.78295        2.60591
H          4.88356        4.22299       -1.28515
H          4.24909        1.90970       -0.67930
H          1.04338        5.59863       -0.11405
H          0.38967        3.28741        0.47617
C         -2.57822       -7.03986       -0.35489
C         -1.33889       -6.10396       -0.45673
C         -0.86574       -5.88851       -1.92848
F         -2.21147       -8.29088       -0.67420
F         -3.01859       -6.99595        0.91126
F         -3.53917       -6.60758       -1.18307
F         -0.33797       -6.66541        0.22573
F          0.29102       -5.21380       -1.88238
F         -0.69831       -7.07182       -2.53437
F         -1.77335       -5.14192       -2.57234
C         -8.42216        1.19650        1.25904
C         -7.31024        1.97512        2.01850
C         -7.45937        1.86780        3.56492
F         -8.25586        1.43702       -0.05027
F         -8.28330       -0.11581        1.49885
F         -9.62678        1.62820        1.66135
F         -7.42078        3.26561        1.69110
F         -6.38073        2.44389        4.11649
F         -8.57295        2.51253        3.94612
F         -7.51790        0.57750        3.92292
C          5.93943       -4.14648        1.79876
C          6.11449       -2.64994        2.19138
C          7.46608       -2.06011        1.69670
F          6.83155       -4.88743        2.47408
F          4.69080       -4.50722        2.13165
F          6.11530       -4.28663        0.47735
F          6.10092       -2.57703        3.52523
F          7.55041       -0.80473        2.16249
F          8.47834       -2.80099        2.17235
F          7.47761       -2.04655        0.35570
C          4.63746        6.72670       -1.70135
C          3.14572        6.31592       -1.53886
C          2.44221        6.03385       -2.90554
F          4.69924        7.93871       -2.27451
F          5.18449        6.76568       -0.47734
F          5.27582        5.81939       -2.45316
F          2.50144        7.32071       -0.94052
F          1.14291        5.82568       -2.65203
F          2.59923        7.08254       -3.72416
F          2.96141        4.92200       -3.44410
