59
-75.81175967
Cl         1.65383        0.60072        2.30733
P          1.59912       -0.09868       -0.80455
P         -1.60365       -0.11881       -0.77839
C          0.61896        0.06998       -2.36194
H          0.39115        1.12638       -2.52126
H          1.23832       -0.26084       -3.20149
C         -0.64524       -0.72779       -2.23567
H         -0.41772       -1.78584       -2.08562
H         -1.27691       -0.65145       -3.12615
C          2.62639       -1.63913       -0.90212
H          2.08857       -2.36851       -1.52027
C          2.98155        1.13781       -0.71695
H          3.05141        1.41700        0.34213
C         -3.02475       -1.24313       -0.37638
H         -3.12408       -1.19797        0.71565
C         -2.58881        1.37298       -1.27146
H         -2.02494        1.91891       -2.03776
C          3.88684       -1.10567       -1.61355
H          4.73466       -1.78403       -1.43442
H          3.72557       -1.11451       -2.70234
C          4.23216        0.33846       -1.15282
H          4.74710        0.88003       -1.95879
H          4.95582        0.29900       -0.32569
C         -4.24009       -0.57466       -1.06179
H         -4.72416       -1.30061       -1.73012
H         -5.00189       -0.32685       -0.30836
C         -3.85123        0.70567       -1.85523
H         -4.68486        1.42400       -1.86654
H         -3.67272        0.44395       -2.90942
C          2.93839       -2.22685        0.47454
H          3.26950       -1.41398        1.13428
H          3.80608       -2.89544        0.38519
C          2.72487        2.38507       -1.55365
H          3.64089        2.99149       -1.58561
H          2.54397        2.08414       -2.59362
C         -2.79006       -2.68585       -0.80619
H         -3.72060       -3.25568       -0.67488
H         -2.59053       -2.70726       -1.88533
C         -2.90736        2.28328       -0.08458
H         -3.76138        2.92290       -0.34803
H         -3.26203        1.66005        0.74696
C          1.78285       -2.98475        1.10823
H          1.44280       -3.79715        0.46334
H          0.92886       -2.33452        1.29268
H          2.06179       -3.42439        2.06858
C          1.57112        3.22309       -1.02806
H          0.64700        2.64628       -1.00112
H          1.38964        4.10714       -1.64352
H          1.76314        3.56412       -0.00892
C         -1.66233       -3.35614       -0.03912
H         -1.50160       -4.38792       -0.35985
H         -1.86845       -3.37174        1.03283
H         -0.72320       -2.82042       -0.17475
C         -1.74667        3.15526        0.36677
H         -1.39495        3.79481       -0.44479
H         -2.02589        3.80671        1.19803
H         -0.90058        2.55683        0.70205
Cl        -1.64362        0.05019        2.38370
Pd         0.01084        0.09147        0.87213
