58
-89.86730274
P          1.85840       -0.29719        0.51963
C          1.86584        1.47792        0.83369
C          1.75750        2.30649       -0.26064
C          1.71940        3.67814       -0.09291
C          1.79157        4.21420        1.17690
C          1.90754        3.38265        2.27309
C          1.94720        2.01109        2.10075
H          2.04439        1.36212        2.95443
H          1.69313        1.86751       -1.24411
C          3.32338       -0.78759       -0.39225
C          4.37803        0.08489       -0.53348
C          5.49905       -0.30199       -1.24544
C          5.55371       -1.56069       -1.81114
C          4.49226       -2.43238       -1.66676
C          3.37249       -2.04290       -0.95323
H          2.53114       -2.70857       -0.83907
H          4.31817        1.06590       -0.09060
C          1.78277       -1.31202        2.06106
C          0.37981       -1.69877        2.50662
C         -0.59175       -0.52618        2.58046
P         -1.45981       -0.33473        0.97246
C         -2.23343        1.28361        0.83771
C         -3.53942        1.39963        0.41949
C         -4.11339        2.65142        0.29011
C         -3.37189        3.78113        0.57462
C         -2.05819        3.66148        0.98191
C         -1.48904        2.40785        1.11029
H         -0.45622        2.30361        1.39563
H         -4.10115        0.51129        0.18110
C         -2.68326       -1.64884        0.85921
C         -2.54306       -2.66647       -0.05688
C         -3.48634       -3.67623       -0.11431
C         -4.56249       -3.66312        0.75070
C         -4.69632       -2.64488        1.67361
C         -3.75084       -1.63620        1.72877
H         -3.84073       -0.83625        2.44700
H         -1.70131       -2.66531       -0.73009
Pd        -0.02240       -0.34328       -0.84956
Cl         1.35373       -0.13303       -2.61070
Cl        -1.91578       -0.28745       -2.06151
H         -1.36997       -0.68232        3.33153
H         -0.08203        0.40269        2.83649
H         -0.03271       -2.45073        1.81781
H          0.43694       -2.20683        3.48243
H          2.39295       -2.20109        1.88291
H          2.29597       -0.74510        2.83906
H          1.62822        4.32417       -0.95048
H          1.96711        3.80222        3.26399
H          6.32593        0.37935       -1.36077
H          4.53281       -3.41267       -2.11241
H         -5.13563        2.74389       -0.03813
H         -1.47281        4.54173        1.19079
H         -3.38171       -4.47026       -0.83534
H         -5.53484       -2.63508        2.35043
H          1.75900        5.28295        1.31264
H          6.42524       -1.86231       -2.36897
H         -3.81670        4.75742        0.47117
H         -5.29875       -4.44902        0.70573
