75
-122.81741083
P          1.81749       -0.59042       -0.05515
C          1.71827       -1.55762       -1.56910
C          1.93368       -2.91525       -1.49858
C          1.94113       -3.67258       -2.65624
C          1.73715       -3.06308       -3.87828
C          1.51759       -1.70163       -3.94458
C          1.50595       -0.94947       -2.78491
H          1.31576        0.10993       -2.81996
H          1.34712       -1.22631       -4.89651
H          1.74168       -3.65195       -4.78092
H          2.10911       -4.73566       -2.60341
H          2.10870       -3.37473       -0.53860
C          3.12129       -1.33187        0.94015
C          4.40415       -1.33818        0.44130
C          5.42344       -1.92482        1.16954
C          5.14770       -2.51070        2.38886
C          3.85638       -2.51711        2.87732
C          2.83968       -1.93018        2.14676
H          1.82735       -1.93433        2.51689
H          3.63984       -2.97773        3.82718
H          5.94078       -2.96720        2.95834
H          6.42949       -1.92681        0.78341
H          4.60034       -0.89578       -0.52297
C          2.20081        1.12777       -0.43833
C          3.35515        1.77140       -0.05766
C          3.52287        3.12648       -0.30535
C          2.49488        3.82517       -0.93817
C          1.32568        3.19735       -1.30614
C          1.17516        1.82329       -1.06046
O         -0.01129        1.14964       -1.39346
C         -1.20184        1.82289       -1.07624
C         -1.35553        3.19367       -1.33811
C         -2.53705        3.81740       -1.00355
C         -3.57709        3.11810       -0.39202
C         -3.39636        1.77250       -0.10301
C         -2.22880        1.13379       -0.44955
P         -1.83884       -0.56355        0.00480
C         -3.16833       -1.26824        0.99189
C         -4.41218       -1.38274        0.41356
C         -5.45801       -1.93323        1.13255
C         -5.24752       -2.37233        2.42445
C         -3.99521       -2.26641        2.99612
C         -2.95204       -1.71573        2.27485
H         -1.97137       -1.62666        2.71273
H         -3.83018       -2.60988        4.00413
H         -6.06134       -2.80034        2.98675
H         -6.43369       -2.02044        0.68345
H         -4.55702       -1.04734       -0.60172
C         -1.67805       -1.59509       -1.45474
C         -1.81308       -1.05345       -2.71227
C         -1.77124       -1.87620       -3.82269
C         -1.59599       -3.23668       -3.66371
C         -1.45920       -3.77529       -2.39950
C         -1.50325       -2.94986       -1.29013
H         -1.41428       -3.35583       -0.29459
H         -1.31905       -4.83651       -2.27595
H         -1.55923       -3.87872       -4.52858
H         -1.87167       -1.45490       -4.80938
H         -1.94655        0.01062       -2.81919
Pd         0.01452       -0.05066        1.38067
Cl        -1.51170        1.00022        2.68188
Cl         1.56307        0.83179        2.77092
H         -4.16337        1.23048        0.42139
C         -4.82783        3.81525        0.00882
H         -5.03970        4.65606       -0.65289
H         -4.74638        4.19881        1.02659
H         -5.68332        3.13956       -0.02898
H         -2.64832        4.86823       -1.20477
S         -0.00751        4.08075       -2.07557
H          2.60559        4.87730       -1.13243
C          4.77848        3.81173        0.10226
H          4.12293        1.22660        0.46211
H          5.61467        3.49122       -0.52048
H          4.68788        4.89482        0.01132
H          5.02459        3.58516        1.14053
