100
-131.96858151
C         -3.14227       -2.82837       -1.37100
C         -1.97736       -3.41143       -0.69909
C         -2.80963       -1.49678       -1.73751
C         -1.38489       -1.21350       -1.38843
C         -0.56424       -0.35717       -2.30725
C         -0.90301       -2.46342       -0.70128
C          0.50136       -2.85671       -0.27305
C          1.07843       -3.94769       -1.15106
Cl        -0.55980        1.37807        2.62221
Cl         0.48696       -1.64182        2.64938
C          0.67543        1.20174       -4.28787
C          0.22922       -0.07044       -4.59021
C          0.51371        1.69834       -3.00248
C         -0.38734       -0.82933       -3.62641
C         -0.06965        0.93479       -2.02061
H         -1.90991       -4.43423       -0.32226
H         -3.43585       -0.84759       -2.35448
H          1.21034       -3.59260       -2.17436
H          2.04670       -4.29061       -0.78152
H          0.41645       -4.81601       -1.19372
H          1.14679        1.80574       -5.04570
H          0.35248       -0.46098       -5.58736
H          0.84656        2.69816       -2.77084
H         -0.76218       -1.80844       -3.87131
H         -4.09205       -3.33305       -1.56677
P         -0.15730        1.70527       -0.39889
H          0.42246       -3.22901        0.75727
P          1.71556       -1.45835       -0.12173
H          1.77542       -1.45220       -2.53622
C          3.87136       -1.26661       -2.07823
C          2.39636       -0.98189       -1.77500
C          4.12902       -2.74761       -2.35773
H          3.61809       -2.75280        0.51412
C          3.99428       -0.87051        1.52249
C          3.05115       -1.98233        1.03670
H          4.14521       -0.16781        0.68533
C          3.41092       -0.08457        2.69959
H          1.02632        3.76661       -0.79852
H         -2.01610        2.60238        0.83094
C         -4.24086        2.49329       -0.90560
C         -2.86808        1.79939       -0.99353
C         -1.78520        2.58216       -0.24127
C         -1.70292        4.02144       -0.77449
C         -3.07024        4.73184       -0.69846
C         -4.15510        3.93271       -1.44442
H         -4.57133        2.51679        0.14001
H         -5.00562        1.91548       -1.44341
H         -2.56966        1.71466       -2.04618
H         -2.91524        0.76964       -0.62268
H         -0.94246        4.59456       -0.22859
H         -1.35798        3.99044       -1.81534
H         -3.36106        4.84276        0.35362
H         -2.99931        5.75536       -1.09260
H         -3.91508        3.90602       -2.51484
H         -5.13006        4.43560       -1.37404
C          3.73918        3.33239       -0.16027
C          2.59505        2.33658       -0.44161
C          1.21837        2.93268       -0.11319
C          1.18680        3.45480        1.33040
C          2.30495        4.48208        1.58466
C          3.68170        3.86254        1.28406
H          3.66649        4.17467       -0.85958
H          4.71397        2.86663       -0.36337
H          2.73458        1.42759        0.15234
H          2.62824        2.01838       -1.49042
H          0.19834        3.86470        1.57764
H          1.32418        2.60590        2.00984
H          2.14894        5.35496        0.93872
H          2.26030        4.86396        2.61423
H          3.86839        3.03659        1.98163
H          4.48604        4.58909        1.46724
H          4.46252       -0.97385       -1.19475
C          4.34166       -0.41302       -3.26095
H          2.58965       -2.47936        1.89020
C          5.36054       -1.45171        1.90070
H          2.21181        0.08612       -1.86075
H          5.18015       -2.93125       -2.58631
H          3.54555       -3.08386       -3.21540
H          3.86352       -3.37762       -1.51075
H          3.76894       -0.65277       -4.15750
H          4.21163        0.65251       -3.06471
H          5.39522       -0.58562       -3.48621
H          3.19701       -0.74928        3.53683
H          4.10787        0.67583        3.05508
H          2.48202        0.41885        2.43931
H          6.05169       -0.67179        2.22423
H          5.25983       -2.16338        2.72072
H          5.81948       -1.97822        1.06221
Fe        -2.60628       -1.73551        0.24317
C         -4.50836       -1.35263        0.95686
C         -3.57285       -0.39108        1.50647
C         -2.54407       -1.13536        2.20137
C         -2.85824       -2.54722        2.11856
C         -4.09149       -2.68183        1.36707
H         -5.41346       -1.11171        0.39442
H         -3.66158        0.69628        1.47425
H         -1.70428       -0.69738        2.74003
H         -2.28242       -3.35936        2.56840
H         -4.60942       -3.61715        1.14385
Pd         0.33128       -0.01544        1.08516
