115
-277.94629083
P         -1.83896       -0.64094       -0.06997
P          1.80013        0.40793       -0.17017
C         -2.10838       -2.40919        0.12141
C         -1.05091       -3.25374        0.37954
H         -0.09286       -2.85504        0.66854
C         -1.20716       -4.61224        0.19772
H         -0.36731       -5.28394        0.28557
C         -2.41477       -5.12142       -0.25086
C         -3.50479       -4.27401       -0.37947
H         -4.43627       -4.67210       -0.74850
C         -3.35381       -2.91565       -0.18470
H         -4.17464       -2.24262       -0.37876
C         -3.25630        0.21368        0.66280
C         -3.95766       -0.33624        1.71150
H         -3.65500       -1.28824        2.11687
C         -5.03899        0.33273        2.24821
H         -5.60359       -0.08532        3.06679
C         -5.42226        1.55726        1.73890
C         -4.71869        2.09955        0.68095
H         -5.03673        3.04820        0.27843
C         -3.63888        1.43014        0.14560
H         -3.10444        1.85185       -0.68860
C         -1.65565       -0.14649       -1.81793
C         -1.11236        1.12092       -1.91886
H         -0.78731        1.62168       -1.02277
C         -0.81738        1.69028       -3.15603
C         -1.27554        1.03671       -4.29315
H         -1.09343        1.47266       -5.26117
C         -1.80720       -0.23402       -4.20262
H         -2.03344       -0.77557       -5.10557
C         -1.89685       -0.89701       -2.97819
C          1.52897       -0.12858       -1.89355
C          0.98519       -1.39935       -1.93766
H          0.71180       -1.88223       -1.01462
C          0.62671       -1.99550       -3.14542
C          1.02454       -1.36668       -4.31871
H          0.79213       -1.82331       -5.26621
C          1.55901       -0.09441       -4.28392
H          1.73765        0.42711       -5.20904
C          1.71042        0.59563       -3.08082
C         -1.89290       -2.41093       -3.01678
H         -2.54260       -2.75034       -3.83162
H         -2.37354       -2.80005       -2.12320
C         -0.45815       -3.03736       -3.17637
H         -0.26399       -3.78250       -2.39760
H         -0.38897       -3.60202       -4.11304
C          0.26352        2.73098       -3.26362
H          0.10298        3.49591       -2.49642
H          0.15115        3.27083       -4.21068
C          1.70459        2.10830       -3.15239
H          2.31819        2.42897       -4.00200
H          2.22287        2.51568       -2.28839
C          2.02398        2.18681       -0.01428
C          0.95793        3.00731        0.28419
C          3.24051        2.72212       -0.38121
C          1.06970        4.36719        0.08016
C          3.34725        4.08146       -0.59588
C          2.24251        4.90212       -0.42718
C          3.27896       -0.39749        0.49233
C          3.66788       -1.61087       -0.02817
C          4.02454        0.19257        1.48677
C          4.80288       -2.23584        0.44661
H          3.09594       -2.06211       -0.82114
C          5.15707       -0.43265        1.96441
H          3.71701        1.14150        1.89610
C          5.55102       -1.65310        1.44964
H          5.13446       -3.17728        0.03793
H          5.75351        0.02263        2.73905
Pd         0.02536       -0.13180        1.28470
Cl        -1.39353       -0.95045        2.82422
Cl         1.51051        0.69607        2.75478
H          4.25135        4.49925       -1.00875
H          4.07024        2.06891       -0.60336
H          0.21774        5.01842        0.20105
H          0.02646        2.58843        0.62653
C         -3.80740       -7.13515       -0.91293
C         -2.40119       -6.46906       -0.92748
C         -1.86957       -6.20896       -2.37302
F         -4.64628       -6.43401       -1.68798
F         -3.70035       -8.39672       -1.35820
F         -4.24830       -7.12755        0.35372
F         -1.54678       -7.28853       -0.31009
F         -1.93666       -7.33553       -3.09488
F         -2.59468       -5.23241       -2.93657
F         -0.60050       -5.79516       -2.26252
C         -6.33014        3.75993        2.54276
C         -6.63821        2.25349        2.29500
C         -7.82373        2.04502        1.30974
F         -5.21051        3.82830        3.27856
F         -6.13922        4.37823        1.36899
F         -7.35486        4.31660        3.20678
F         -6.98142        1.71205        3.46701
F         -7.48001        2.51185        0.10036
F         -8.05625        0.72577        1.23580
F         -8.90892        2.68282        1.77364
C          8.02180       -1.63242        1.18039
C          6.82668       -2.31637        1.90367
C          6.95433       -2.25151        3.45432
F          9.17215       -2.18363        1.59557
F          7.85974       -1.83163       -0.13640
F          8.00264       -0.31755        1.44449
F          6.82151       -3.60531        1.55251
F          7.99303       -3.00710        3.84327
F          7.12909       -0.97927        3.83830
F          5.81434       -2.73065        3.97438
C          3.55398        6.94674       -1.15737
C          2.16724        6.24223       -1.11475
C          1.59224        5.95372       -2.53790
F          4.04106        6.96319        0.09222
F          4.38298        6.26177       -1.95717
F          3.39573        8.20077       -1.60886
F          1.31332        7.04438       -0.47436
F          0.33750        5.51339       -2.37872
F          1.60925        7.07281       -3.27431
F          2.31893        4.98650       -3.11546
