105
-153.07093848
Cl        -0.83255        2.02520       -2.91601
Pd         0.08703        1.56095       -0.91751
P          1.31419        0.72395        0.87331
N          0.61867       -0.51383        1.90465
C          0.02684       -1.74691        1.67675
C         -0.09441       -2.34149        0.39728
C         -0.81982       -3.54228        0.25556
C         -0.94420       -4.15167       -1.12161
C         -1.47615       -5.59346       -1.13804
C         -2.64235       -5.76213       -0.15980
C         -2.20156       -5.42308        1.27211
C         -1.39714       -4.15185        1.37128
C         -1.22005       -3.57903        2.62367
C         -0.52411       -2.40783        2.77433
H         -0.42540       -1.96231        3.74897
H         -1.65669       -4.05925        3.48302
H         -3.07653       -5.34075        1.92967
H         -3.46269       -5.09668       -0.45644
H         -1.77562       -5.88746       -2.15392
H         -1.59899       -3.51007       -1.72290
C          0.67895       -1.85521       -0.77100
C          0.01281       -1.22699       -1.85749
C          0.72802       -1.00487       -3.03750
C          2.03636       -1.39647       -3.15594
C          2.68919       -2.04955       -2.11773
C          4.09419       -2.54385       -2.34083
C          4.43478       -3.76133       -1.47024
C          4.11153       -3.47220       -0.00139
C          2.63124       -3.09749        0.19441
C          2.01211       -2.28219       -0.91942
H          2.03970       -4.01320        0.31309
H          4.74624       -2.64964        0.34619
H          5.48864       -4.04975       -1.59175
H          4.79490       -1.72861       -2.13002
H          2.56943       -1.21278       -4.07333
H          0.23874       -0.50000       -3.85173
N         -1.32182       -0.81058       -1.77983
P         -1.81519        0.20401       -0.41993
C         -2.78797       -0.73104        0.76017
C         -3.53102       -1.78508        0.28621
C         -4.34077       -2.49946        1.15080
C         -4.40771       -2.15869        2.49482
C         -3.67276       -1.07040        2.94656
C         -2.86751       -0.35450        2.07955
H         -2.29844        0.49028        2.42887
H         -3.73331       -0.78860        3.98387
C         -5.27907       -2.92355        3.42872
H         -4.92330       -3.32810        0.78642
H         -3.46863       -2.04521       -0.75857
C         -2.93011        1.50746       -0.96164
C         -2.88848        2.73878       -0.35066
C         -3.75070        3.73813       -0.76268
C         -4.66859        3.50535       -1.77798
C         -4.69751        2.25354       -2.37788
C         -3.83341        1.25515       -1.96565
H         -3.86189        0.27941       -2.42333
H         -5.39867        2.06642       -3.17316
C         -5.57510        4.59089       -2.24405
H         -3.71213        4.70911       -0.29920
H         -2.17778        2.91766        0.44044
H         -1.66948       -0.33464       -2.60228
H          0.80344       -0.25095        2.86529
C          1.27240        2.22935        1.85462
C          2.39952        2.99069        2.05228
C          2.31818        4.16014        2.78540
C          1.10550        4.57889        3.31694
C         -0.02038        3.79294        3.11155
C          0.06448        2.62312        2.37862
H         -0.80727        2.01381        2.20682
H         -0.96386        4.10331        3.52712
C          1.02045        5.82752        4.12400
H          3.19851        4.75890        2.94538
H          3.33637        2.67422        1.62400
C          3.04322        0.36312        0.57050
C          3.65350        0.71607       -0.60927
C          5.00442        0.48142       -0.78299
C          5.75526       -0.10437        0.22685
C          5.12877       -0.42539        1.42353
C          3.77477       -0.19507        1.59193
H          3.28394       -0.44187        2.52010
H          5.70628       -0.86008        2.22144
C          7.21265       -0.34689        0.04340
H          5.48651        0.76114       -1.70415
H          3.07724        1.19857       -1.38070
Cl         1.71267        3.08574       -1.18067
H         -1.60407       -6.24698        1.68022
H         -0.66841       -6.28196       -0.85954
H         -3.05380       -6.78006       -0.21350
H          0.03449       -4.11078       -1.61594
H          4.38044       -4.33096        0.62959
H          2.50361       -2.54986        1.13603
H          4.23080       -2.78231       -3.40335
H          3.84927       -4.62561       -1.80834
H         -4.84351       -2.96318        4.42816
H         -6.26345       -2.46023        3.50769
H         -5.41648       -3.95065        3.08759
H         -5.81701        5.27794       -1.43195
H         -5.10859        5.16664       -3.04451
H         -6.51345        4.18461       -2.62417
H          0.04832        6.30774        4.00365
H          1.16189        5.61388        5.18436
H          1.78342        6.54570        3.82042
H          7.44636       -0.56556       -0.99956
H          7.79160        0.52791        0.34237
H          7.54926       -1.19468        0.64182
