45
-71.82041485
C          0.38933        1.48907        3.12194
P         -0.19928        0.77058        1.55270
P         -0.15478        0.80880       -1.55034
C          0.44966        1.55076       -3.10265
Cl         3.04783       -0.19223        1.53845
H          0.79387        2.48164        2.94549
H          0.84140        2.54522       -2.90890
Cl         3.12244        0.12422       -1.50688
C         -1.36814        1.83693        0.68595
C         -1.34889        1.85369       -0.69130
C         -2.25848        2.62092       -1.39006
C         -3.18666        3.38082       -0.70033
C         -3.20584        3.36409        0.68114
C         -2.29691        2.58736        1.37771
H         -2.24234        2.61553       -2.46773
H         -3.89763        3.98270       -1.24207
H         -3.93178        3.95291        1.21735
H         -2.31045        2.55581        2.45499
Pd         1.48831        0.39552        0.02138
H         -0.35965        1.62026       -3.82377
H          1.16830        0.86015        3.54366
H          1.24147        0.93486       -3.51954
C         -1.73150       -3.42919       -1.97651
C         -0.37750       -3.17964       -2.08711
C          0.09325       -1.88386       -1.98078
C         -0.79115       -0.85203       -1.76615
C         -2.14021       -1.09402       -1.65216
C         -2.61430       -2.38893       -1.76058
H         -2.09989       -4.43899       -2.05475
H          0.31191       -3.99186       -2.24876
H          1.14847       -1.66694       -2.04051
H         -2.81295       -0.27273       -1.46457
H         -3.66966       -2.58565       -1.66725
C         -1.84095       -3.44939        1.91664
C         -2.71064       -2.38771        1.75971
C         -2.21599       -1.09910        1.66866
C         -0.85935       -0.88468        1.74056
C          0.01140       -1.93818        1.89767
C         -0.47950       -3.22751        1.98612
H         -2.22559       -4.45408        1.98141
H         -3.77225       -2.56255        1.69957
H         -2.87912       -0.26083        1.52776
H          1.07184       -1.74185        1.92927
H          0.19966       -4.05596        2.10242
H         -0.43016        1.55888        3.83144
