111
-148.55385401
P         -1.59574       -2.72711        0.20891
P         -0.43428        0.11435       -0.52542
C         -1.67030       -2.13829       -1.50753
C         -1.22227       -0.87068       -1.81388
C         -0.40150       -4.13306        0.34678
C          0.76788       -3.75458        1.23059
C         -2.13940       -2.96090       -2.51181
H         -2.44896       -3.96560       -2.27545
C         -2.18467       -2.49996       -3.81626
H         -2.55547       -3.14077       -4.59953
C         -1.74876       -1.22369       -4.11687
H         -1.77868       -0.86731       -5.13338
C         -1.25513       -0.40977       -3.11327
H         -0.87804        0.57620       -3.33530
Pd        -1.22524       -0.80865        1.43721
Cl        -2.37028       -1.59260        3.19638
Cl        -0.61312        1.07345        2.51378
C         -1.26370       -5.28639        0.89976
C         -3.14823       -3.56877        0.76493
H          1.46304       -4.58857        1.35211
H          1.32335       -2.91048        0.81737
H          0.42178       -3.46187        2.22405
H         -1.08725       -5.36873        1.98096
H         -0.93524       -6.24722        0.47575
H         -3.26740       -3.30291        1.82334
C         -2.78125       -5.05856        0.64452
C         -4.36660       -3.13631       -0.02234
H         -0.06886       -4.35197       -0.67643
H         -3.04523       -5.41092       -0.36194
H         -3.39138       -5.65968        1.33609
H         -5.27187       -3.62402        0.34625
H         -4.51439       -2.05583        0.04127
H         -4.26613       -3.39063       -1.07765
C         -0.94474        4.62372       -0.89210
C          0.32740        4.08437       -0.57333
C          0.44826        2.70879       -0.47217
C         -0.61182        1.88174       -0.73626
C         -1.81636        2.39353       -1.14304
C         -2.00255        3.76018       -1.27686
O         -1.17247        6.02135       -0.78382
C          1.55561        4.96176       -0.28586
H          1.37677        2.26261       -0.16344
H         -2.61907        1.70496       -1.34495
C         -3.34820        4.28389       -1.80281
C          3.77515       -1.51924        0.06601
C          3.24320       -0.59352        1.00259
C          1.96724       -0.10446        0.78446
C          1.26464       -0.42876       -0.34566
C          1.81978       -1.22910       -1.30897
C          3.09022       -1.75839       -1.15518
O          4.93570       -2.26822        0.38970
C          3.98375       -0.11377        2.26159
H          1.47849        0.49850        1.53051
H          1.23368       -1.46568       -2.18038
C          3.66332       -2.58730       -2.31633
C          1.50446        6.27654       -1.08495
C          1.62104        5.25784        1.22033
C          2.85373        4.23430       -0.70373
C         -3.97645        3.27336       -2.78957
C         -4.31237        4.48416       -0.62393
C         -3.16820        5.60587       -2.57126
C         -1.62557        6.43277        0.49997
H          0.65725        6.88951       -0.78839
H          2.40762        6.86575       -0.92799
H          1.41259        6.07384       -2.15144
H          2.49139        5.86734        1.46186
H          0.73372        5.78966        1.55576
H          1.68704        4.33235        1.79197
H          3.05085        3.36739       -0.07587
H          2.79472        3.90079       -1.73940
H          3.71464        4.89633       -0.61333
H         -4.86387        3.69432       -3.26168
H         -3.27068        3.01130       -3.57745
H         -4.28577        2.35775       -2.28788
H         -3.92095        5.20812        0.08669
H         -5.28219        4.84169       -0.96896
H         -4.46798        3.54702       -0.09003
H         -2.45144        5.48349       -3.38259
H         -4.11205        5.94168       -3.00004
H         -2.80329        6.39673       -1.92071
H         -1.73181        5.57029        1.15929
H         -0.91316        7.13474        0.93290
H         -2.58644        6.93810        0.40382
C          4.63997       -3.47718        1.07047
C          5.48576       -0.44341        2.22161
C          3.86222        1.42217        2.37275
C          3.34604       -0.75916        3.50365
C          5.17989       -2.81072       -2.18571
C          2.94316       -3.94515       -2.37539
C          3.43206       -1.83622       -3.64642
H          5.93981       -0.05639        1.31005
H          6.00650       -0.00662        3.07344
H          5.65522       -1.51703        2.24845
H          4.42199        1.79499        3.23006
H          4.25822        1.90318        1.47917
H          2.82834        1.73945        2.49768
H          3.42023       -1.84422        3.46603
H          3.83852       -0.42033        4.41462
H          2.28996       -0.50157        3.57826
H          5.41607       -3.42569       -1.32080
H          5.58005       -3.31356       -3.06582
H          5.69957       -1.86010       -2.07116
H          3.08548       -4.50768       -1.45478
H          1.87137       -3.81129       -2.51932
H          3.31907       -4.54982       -3.20025
H          2.37274       -1.73634       -3.87699
H          3.89565       -2.36691       -4.47765
H          3.86363       -0.83664       -3.60316
H          5.57172       -3.97524        1.33925
H          4.06936       -3.26907        1.97396
H          4.05425       -4.13461        0.43054
