115
-277.94120226
P         -2.02506       -0.27874       -0.14474
P          1.58940        0.77577       -0.23530
C         -1.87325       -2.05144        0.15957
C         -0.66294       -2.60890        0.51563
H          0.16638       -1.98251        0.79868
C         -0.49481       -3.97616        0.44900
H          0.47135       -4.42691        0.61759
C         -1.53778       -4.78599        0.03312
C         -2.78501       -4.22530       -0.19071
H         -3.58963       -4.85853       -0.52788
C         -2.95594       -2.85839       -0.11496
H         -3.90884       -2.41481       -0.35919
C         -3.58537        0.33876        0.51330
C         -4.26084       -0.32892        1.50827
H         -3.85046       -1.23766        1.91856
C         -5.44297        0.18418        1.99999
H         -5.97611       -0.31790        2.79187
C         -5.95760        1.36276        1.49329
C         -5.26907        2.03002        0.50012
H         -5.67344        2.95744        0.12678
C         -4.08532        1.51742        0.00953
H         -3.54956        2.03584       -0.76865
C         -1.81883        0.26104       -1.87723
C         -1.27971        1.53289       -1.96295
H         -0.98702        2.04011       -1.05893
C         -0.95439        2.10325       -3.19390
C         -1.39785        1.45643       -4.34100
H         -1.19202        1.89223       -5.30437
C         -1.94197        0.19043       -4.26426
H         -2.15966       -0.34562       -5.17242
C         -2.05298       -0.47656       -3.04454
C          1.35652        0.23772       -1.96765
C          0.81053       -1.02958       -2.02022
H          0.53663       -1.51576       -1.10234
C          0.44767       -1.62266       -3.22803
C          0.85816       -0.99854       -4.39932
H          0.62708       -1.45263       -5.34839
C          1.40777        0.26725       -4.35923
H          1.60212        0.78565       -5.28293
C          1.55593        0.95650       -3.15499
C         -2.08212       -1.98773       -3.08359
H         -2.74423       -2.30831       -3.89570
H         -2.56660       -2.35556       -2.18216
C         -0.65990       -2.64268       -3.25483
H         -0.47751       -3.39307       -2.47838
H         -0.60481       -3.20670       -4.19268
C          0.14950        3.12313       -3.28999
H          0.02875        3.86758       -2.49658
H          0.03119        3.69676       -4.21629
C          1.57851        2.46752       -3.23063
H          2.16793        2.77415       -4.10281
H          2.14433        2.86936       -2.39367
C          2.16080        2.47956       -0.19466
C          1.25408        3.50059       -0.01129
C          3.45920        2.75115       -0.57230
C          1.61334        4.79445       -0.32600
C          3.81068        4.04446       -0.90822
C          2.86800        5.06124       -0.84898
C          2.87580       -0.22448        0.54211
C          3.55140       -1.15292       -0.21605
C          3.19809       -0.05340        1.86767
C          4.54388       -1.91901        0.35807
H          3.30531       -1.27740       -1.25775
C          4.19371       -0.81445        2.44264
H          2.66992        0.67961        2.45402
C          4.86788       -1.75620        1.69152
H          5.08395       -2.65174       -0.22120
H          4.46510       -0.68886        3.47902
Pd        -0.29121        0.60877        1.16751
Cl        -1.74903        0.15497        2.81742
Cl         1.00027        1.90786        2.48021
H          4.78025        4.25361       -1.33092
H          4.15943        1.94143       -0.70678
H          0.88928        5.59395       -0.29423
H          0.25034        3.28319        0.31503
C         -2.42638       -7.12364       -0.38295
C         -1.20737       -6.16172       -0.48798
C         -0.72810       -5.95465       -1.95894
F         -2.02965       -8.37003       -0.68395
F         -2.87673       -7.07385        0.87948
F         -3.39081       -6.72331       -1.22305
F         -0.19933       -6.69196        0.20880
F          0.41017       -5.24902       -1.91364
F         -0.52471       -7.14163       -2.54634
F         -1.64972       -5.24150       -2.62049
C         -8.32302        0.86899        2.19181
C         -7.22390        1.96294        2.04961
C         -6.89544        2.65551        3.40282
F         -8.42545        0.24366        1.00945
F         -7.96374       -0.00823        3.13935
F         -9.48884        1.45320        2.50854
F         -7.69068        2.89773        1.21706
F         -6.00626        3.62787        3.14982
F         -8.01717        3.17630        3.92258
F         -6.35778        1.75638        4.24033
C          5.72557       -4.08396        2.05321
C          5.96962       -2.56975        2.32067
C          7.33814       -2.08049        1.76601
F          6.60401       -4.80596        2.76585
F          4.47210       -4.36454        2.44085
F          5.86225       -4.33465        0.74355
F          5.97736       -2.38824        3.64414
F          7.47304       -0.79081        2.11048
F          8.32571       -2.81087        2.30558
F          7.34038       -2.19430        0.42986
C          4.51324        6.74518       -1.79701
C          3.02265        6.31847       -1.66861
C          2.36006        6.00767       -3.04942
F          4.57621        7.94857       -2.38793
F          5.02597        6.81047       -0.55936
F          5.18286        5.83400       -2.51626
F          2.35046        7.32396       -1.10304
F          1.05672        5.78809       -2.82830
F          2.52754        7.04569       -3.87951
F          2.90642        4.89397       -3.55640
