111
-148.55760564
P         -2.38081       -2.35444       -0.41217
P         -0.01047       -0.17127       -0.52372
C         -1.57016       -1.95092       -1.98127
C         -0.56838       -1.00471       -2.02378
C         -2.57827       -4.17705       -0.17755
C         -1.59918       -4.69449        0.85390
C         -1.96763       -2.58608       -3.13992
H         -2.75650       -3.31981       -3.10026
C         -1.35661       -2.27308       -4.34202
H         -1.66640       -2.76897       -5.24740
C         -0.35226       -1.32520       -4.38234
H          0.12417       -1.08144       -5.31761
C          0.04244       -0.68865       -3.21893
H          0.82782        0.05120       -3.23192
Pd        -1.17663       -1.21337        1.17780
Cl        -2.69635       -1.94268        2.66058
Cl         0.08926       -0.05261        2.62251
C         -4.05989       -4.31343        0.22129
C         -4.15033       -1.81896       -0.35572
H         -1.71706       -5.76897        1.01317
H         -0.56615       -4.50678        0.55045
H         -1.75315       -4.19931        1.81453
H         -4.13072       -4.30725        1.31778
H         -4.45396       -5.29134       -0.09468
H         -4.27865       -1.30218        0.60468
C         -4.91968       -3.15342       -0.35695
C         -4.48303       -0.89958       -1.51167
H         -2.39748       -4.64133       -1.15557
H         -5.21084       -3.39328       -1.38880
H         -5.86408       -3.05047        0.19877
H         -3.82730       -0.02613       -1.52427
H         -4.35439       -1.41378       -2.46566
H         -5.51712       -0.55056       -1.46132
C         -1.19714        4.22479       -0.44500
C          0.01456        3.84105       -1.07508
C          0.36159        2.49974       -1.07204
C         -0.47526        1.55657       -0.53477
C         -1.70046        1.90980       -0.03112
C         -2.10730        3.23321        0.00142
O         -1.47906        5.60160       -0.23755
C          0.95201        4.86398       -1.73668
H          1.29917        2.17153       -1.48603
H         -2.33707        1.13333        0.35566
C         -3.49964        3.56879        0.55964
C          4.36700       -1.04901        0.37102
C          3.80841        0.19037        0.77555
C          2.47397        0.43199        0.49430
C          1.72879       -0.46557       -0.22350
C          2.29071       -1.62071       -0.70212
C          3.62049       -1.92341       -0.45950
O          5.65384       -1.43483        0.83180
C          4.60783        1.24982        1.54941
H          1.98655        1.31865        0.86073
H          1.66601       -2.29516       -1.26233
C          4.21783       -3.20253       -1.06639
C          0.14482        5.99536       -2.39909
C          1.90758        5.44451       -0.68376
C          1.79571        4.19837       -2.84721
C         -4.49912        2.42873        0.25951
C         -3.40209        3.74387        2.08293
C         -4.07238        4.84167       -0.08987
C         -1.02221        6.10690        1.01090
H          0.80108        6.69202       -2.92007
H         -0.56233        5.58992       -3.12197
H         -0.41924        6.56257       -1.66243
H          1.36381        5.96557        0.09961
H          2.48877        4.65281       -0.21352
H          2.60322        6.15132       -1.13546
H          1.15788        3.67099       -3.55612
H          2.36437        4.94522       -3.40082
H          2.51389        3.49017       -2.43617
H         -5.50919        2.71300        0.55361
H         -4.51422        2.19989       -0.80546
H         -4.25316        1.51949        0.80575
H         -4.37506        3.98071        2.51250
H         -3.03918        2.82962        2.55218
H         -2.71384        4.54371        2.34532
H         -5.08505        5.03886        0.26101
H         -3.46887        5.71482        0.14309
H         -4.10335        4.73786       -1.17396
H         -0.40063        6.98597        0.84084
H         -1.87311        6.40761        1.62148
H         -0.44547        5.34759        1.54061
C          5.63550       -2.14809        2.06214
C          6.10010        1.21170        1.17299
C          4.09732        2.66818        1.20913
C          4.43348        1.01163        3.05697
C          5.71801       -3.02746       -1.36459
C          4.00382       -4.37392       -0.09589
C          3.52895       -3.54132       -2.40834
H          6.55800        0.26764        1.45663
H          6.22767        1.33470        0.09801
H          6.65087        2.00779        1.67338
H          4.73816        3.42822        1.65552
H          4.09163        2.82600        0.13097
H          3.09045        2.83699        1.58784
H          3.38142        1.06710        3.33577
H          4.79941        0.02898        3.34526
H          4.97695        1.75756        3.63624
H          6.28742       -2.86396       -0.45305
H          6.12623       -3.91160       -1.85360
H          5.88183       -2.17174       -2.01871
H          4.49412       -4.19075        0.85720
H          2.94222       -4.52238        0.10070
H          4.40395       -5.30014       -0.50754
H          2.49143       -3.83996       -2.26595
H          4.03439       -4.36970       -2.90425
H          3.55013       -2.68496       -3.08190
H          6.20202       -1.59850        2.81361
H          4.60974       -2.28305        2.40767
H          6.10506       -3.12228        1.92665
