72
-108.40388363
Cl         1.76946       -0.81089        2.73554
Cl        -0.99123        0.64518        2.79984
P         -1.09239        1.13018       -0.26572
P          2.25200       -0.09371       -0.39145
C          3.25125        1.49931       -0.14610
C          3.61235        1.64879        1.33333
C          4.51391        1.45713       -0.99922
C          3.32171       -1.64777       -0.13070
C          4.13321       -1.95386       -1.39647
C          1.46524       -0.38297       -2.08108
C          1.52839        0.78422       -3.04423
C         -1.11706       -0.20631       -1.49821
C          0.05156       -0.92485       -2.00610
C         -0.47269       -2.01853       -2.82579
C         -1.91743       -1.89862       -2.90345
C         -2.31602       -0.74968       -2.11284
C          2.39105        2.69240       -0.53738
H          4.10399        2.60649        1.51195
H          2.72412        1.61479        1.96421
H          5.04885        2.40637       -0.93941
H          4.28350        1.27386       -2.04758
C          4.28132       -1.50968        1.04726
H          4.90936       -2.69068       -1.18281
H          4.62288       -1.06417       -1.78862
H          2.07556       -1.18667       -2.50291
H          2.53723        1.17996       -3.15465
H          0.87058        1.58469       -2.71494
H          1.18193        0.49015       -4.03713
H          0.13726       -2.71678       -3.40231
H         -2.58446       -2.53495       -3.48977
Pd         0.52482        0.22236        1.18465
H         -3.33329       -0.39752       -1.92884
C          2.34456       -2.78332        0.13608
H          3.51585       -2.37938       -2.18689
H          3.76303       -1.19907        1.95179
H          4.75969       -2.46629        1.26232
H          5.07814       -0.79945        0.83423
H          1.84794       -2.64327        1.09507
H          1.58516       -2.83759       -0.64530
H          2.86187       -3.74418        0.17113
H          4.29502        0.87499        1.67347
H          5.19851        0.68047       -0.66241
H          2.90931        3.62956       -0.32695
H          2.14671        2.69495       -1.59639
H          1.46532        2.69476        0.03539
C         -2.76626        1.22615        0.42370
C         -3.18813        2.16119        1.33603
C         -4.52641        1.88624        1.61688
C         -4.86913        0.79367        0.85958
O         -3.79825        0.37879        0.12203
H         -2.58693        2.94181        1.77203
H         -5.16467        2.42359        2.29914
H         -5.84120        0.31658        0.84041
C         -0.72118        2.74486       -0.97519
C         -0.66687        3.89966       -0.23393
C         -0.36214        4.93762       -1.11559
C         -0.24400        4.37159       -2.36115
O         -0.45834        3.02468       -2.28832
H         -0.81425        3.97934        0.83100
H         -0.24325        5.97960       -0.86721
H         -0.01285        4.90116       -3.27707
Fe        -1.33073       -2.08948       -0.96905
C         -3.03446       -2.75870       -0.01200
C         -2.21578       -1.99511        0.90767
C         -0.91293       -2.62283        0.96028
C         -0.92798       -3.80089        0.11319
C         -2.23581       -3.86377       -0.51362
H         -4.07313       -2.54199       -0.27121
H         -2.51558       -1.09845        1.45262
H         -0.10656       -2.31384        1.62764
H         -0.11380       -4.51673       -0.01923
H         -2.57784       -4.63849       -1.20386
