111
-148.55528079
P         -1.66084       -2.73635        0.01146
P         -0.46196        0.12268       -0.56900
C         -1.67556       -2.08365       -1.68137
C         -1.20696       -0.80921       -1.92178
C         -0.53751       -4.19698        0.15492
C          0.65283       -3.86832        1.03077
C         -2.12567       -2.85988       -2.72987
H         -2.45770       -3.86768       -2.54099
C         -2.12667       -2.34642       -4.01540
H         -2.48146       -2.95049       -4.83444
C         -1.66837       -1.06413       -4.25114
H         -1.66475       -0.66697       -5.25284
C         -1.19773       -0.29568       -3.20146
H         -0.80837        0.69593       -3.37107
Pd        -1.27682       -0.89859        1.33697
Cl        -1.71473       -2.02901        3.22084
Cl        -0.82669        1.01563        2.43880
C         -1.45513       -5.29844        0.72354
C         -3.26092       -3.49901        0.54267
H          1.23685       -3.04409        0.61664
H          0.32590       -3.56581        2.02770
H          1.31554       -4.72943        1.14462
H         -1.29077       -5.36669        1.80767
H         -1.16800       -6.28158        0.32105
H         -3.39225       -3.20631        1.59318
C         -2.95864       -5.00554        0.45097
C         -4.43583       -3.02728       -0.28723
H         -0.22180       -4.44173       -0.86776
H         -3.22849       -5.36186       -0.55271
H         -3.60140       -5.56739        1.14595
H         -5.37205       -3.46931        0.06118
H         -4.53814       -1.94040       -0.24602
H         -4.31412       -3.30439       -1.33478
C         -0.94583        4.64531       -0.74769
C          0.35081        4.08114       -0.64085
C          0.46213        2.70210       -0.59172
C         -0.64008        1.89653       -0.70910
C         -1.88387        2.43371       -0.91332
C         -2.06555        3.80594       -0.98123
O         -1.12757        6.04405       -0.58121
C          1.62313        4.93530       -0.52715
H          1.41940        2.23563       -0.44061
H         -2.71896        1.76031       -1.00566
C         -3.46998        4.36021       -1.26765
C          3.76614       -1.41415        0.12809
C          3.19970       -0.47260        1.02510
C          1.91338       -0.02675        0.77793
C          1.23558       -0.40726       -0.34941
C          1.81444       -1.23999       -1.27031
C          3.09375       -1.73459       -1.07945
O          4.98185       -2.06957        0.45960
C          3.92542        0.02881        2.28242
H          1.39502        0.58945        1.49218
H          1.23836       -1.52350       -2.13340
C          3.70515       -2.65095       -2.15029
C          1.47862        6.25567       -1.30529
C          1.90953        5.22070        0.95507
C          2.83688        4.19007       -1.12848
C         -3.39649        5.69933       -2.02381
C         -4.26857        3.38406       -2.16140
C         -4.22469        4.54067        0.05817
C         -1.36971        6.43896        0.76345
H          0.69107        6.87835       -0.88855
H          2.40352        6.83114       -1.27581
H          1.23318        6.06102       -2.34875
H          1.09244        5.77048        1.41577
H          2.03496        4.29069        1.50892
H          2.81935        5.80900        1.07132
H          3.11177        3.31927       -0.53539
H          2.62404        3.85981       -2.14485
H          3.71080        4.84015       -1.16404
H         -4.39220        6.05783       -2.28364
H         -2.91689        6.46862       -1.42394
H         -2.82460        5.58904       -2.94453
H         -5.21369        3.82905       -2.47184
H         -3.70572        3.13289       -3.06008
H         -4.50799        2.46027       -1.63700
H         -3.71009        5.23969        0.71294
H         -5.23180        4.91953       -0.11390
H         -4.30629        3.59137        0.58704
H         -1.37133        5.56822        1.42048
H         -0.59621        7.13600        1.08530
H         -2.33234        6.94580        0.82842
C          4.81050       -3.26308        1.21455
C          3.57058       -0.88262        3.46723
C          5.44969        0.06334        2.07147
C          3.48751        1.47252        2.62116
C          5.23529       -2.49324       -2.20825
C          3.33258       -4.10939       -1.84230
C          3.16174       -2.29103       -3.55197
H          3.87847       -1.90893        3.28175
H          4.05888       -0.54399        4.38055
H          2.49463       -0.88632        3.64090
H          5.95643        0.47785        2.94260
H          5.85068       -0.93234        1.90102
H          5.70311        0.67706        1.20766
H          2.44605        1.51690        2.93574
H          4.08516        1.87654        3.43788
H          3.61372        2.12674        1.75920
H          5.66123       -3.09514       -3.01060
H          5.50727       -1.45290       -2.38336
H          5.70243       -2.80776       -1.27842
H          3.70495       -4.41469       -0.86744
H          2.25047       -4.23771       -1.83861
H          3.74947       -4.78493       -2.58876
H          2.10388       -2.53106       -3.64882
H          3.68773       -2.84982       -4.32573
H          3.29365       -1.22913       -3.75785
H          3.75165       -3.45279        1.39288
H          5.24382       -4.10373        0.67293
H          5.32775       -3.17093        2.16938
