58
-89.86440294
P          1.64673        0.27755        0.81793
C          2.78768        1.64336        0.58292
C          4.11084        1.40001        0.29431
C          4.97897        2.46013        0.10561
C          4.51334        3.75639        0.20680
C          3.18404        3.99513        0.49561
C          2.31800        2.93264        0.68439
H          1.27489        3.10224        0.90144
H          4.45744        0.38258        0.21201
C          2.40506       -1.27374        0.30789
C          2.61868       -1.47391       -1.03695
C          3.16324       -2.66308       -1.48361
C          3.49400       -3.64812       -0.57485
C          3.28724       -3.44246        0.77495
C          2.74309       -2.25048        1.21774
H          2.58401       -2.08298        2.27002
H          2.35161       -0.69240       -1.73014
C          1.23839        0.27662        2.61254
C          0.12161       -0.67010        3.02074
C         -1.26336       -0.15582        2.67412
P         -1.67584       -0.17072        0.88341
C         -3.20658        0.76403        0.71920
C         -4.33476        0.31659        1.37052
C         -5.51530        1.03206        1.27735
C         -5.55663        2.19827        0.53961
C         -4.42019        2.65280       -0.09901
C         -3.24186        1.93514       -0.00342
H         -2.34951        2.28212       -0.49854
H         -4.28685       -0.58676        1.95807
C         -1.84389       -1.86952        0.30949
C         -0.70742       -2.64050        0.22236
C         -0.78636       -3.94470       -0.22888
C         -2.00915       -4.47000       -0.59542
C         -3.14712       -3.69112       -0.51938
C         -3.06208       -2.38637       -0.06861
H         -3.94021       -1.76448       -0.02867
H          0.24669       -2.20632        0.46568
Pd        -0.10324        0.47591       -0.70477
Cl         1.40933        1.41823       -2.07732
Cl        -1.76267        0.45194       -2.21391
H         -2.03941       -0.75059        3.16207
H         -1.38930        0.87150        3.02154
H          0.27785       -1.65583        2.56632
H          0.17688       -0.84526        4.10658
H          2.17280        0.04068        3.12764
H          0.98656        1.30305        2.88586
H          6.01530        2.27385       -0.12371
H          2.81977        5.00659        0.56960
H          3.32542       -2.81999       -2.53728
H          3.54903       -4.21065        1.48398
H         -6.40003        0.68002        1.78198
H         -4.45038        3.56396       -0.67362
H          0.10700       -4.54266       -0.30356
H         -4.10016       -4.09687       -0.81670
H          5.18800        4.58346        0.05680
H          3.91675       -4.57786       -0.91924
H         -6.47601        2.75578        0.46433
H         -2.07421       -5.48569       -0.95016
