72
-98.09750177
Fe        -0.00825        2.83819        0.00441
P          1.90171       -0.03582        0.02317
P         -1.75936       -0.08213       -0.02077
C          1.42533        1.59439        0.70233
C          0.41175        1.83084        1.71549
C          0.36800        3.25470        2.00098
C          1.34442        3.90948        1.14991
C          1.98606        2.88607        0.34067
C         -1.39581        1.58840       -0.68600
C         -1.99815        2.84291       -0.25802
C         -1.42051        3.92324       -1.04026
C         -0.43897        3.33957       -1.93587
C         -0.43636        1.90124       -1.72969
C          3.35161       -0.61000        1.02988
C          4.51228        0.13990        0.35649
C          2.81009        0.15280       -1.59039
C          4.29397        0.29721       -1.17320
C         -3.02535       -0.82835       -1.15286
C         -4.29522       -0.06175       -0.74895
C         -2.90919        0.11350        1.43014
C         -4.28451        0.34102        0.75767
H         -0.18592        1.05968        2.20370
H         -0.27939        3.74335        2.73242
H          1.56386        4.97918        1.12688
H          2.78459        3.04749       -0.38694
H         -2.76836        2.95092        0.50854
H          0.16760        1.17604       -2.27379
Cl         1.69431       -3.08872        0.38476
Cl        -1.45555       -3.16537       -0.03977
Pd         0.09240       -1.53311        0.08265
H          3.45243       -1.68916        0.86944
C          3.22229       -0.30597        2.51824
H          2.44274        1.07059       -2.06426
C          2.59284       -1.04889       -2.51196
H          5.46891       -0.36161        0.57056
H          4.59518        1.13335        0.82071
H          4.69995        1.25794       -1.52299
H          4.88160       -0.46740       -1.69970
H         -1.67355        4.98295       -0.96215
H          0.16712        3.88248       -2.66489
H          4.18209       -0.51515        3.01071
H          3.38420       -1.06233       -3.27464
H         -3.12715       -1.88635       -0.88723
C         -2.64119       -0.68945       -2.61948
H         -2.58389        1.00063        1.98661
C         -2.92683       -1.10427        2.35308
H         -5.19372       -0.64972       -0.99170
H         -4.36314        0.84125       -1.37301
H         -4.60029        1.38841        0.87331
H         -5.04277       -0.24212        1.29913
H         -2.49953        0.37420       -2.85129
H         -3.11472       -2.00008        1.74687
C          2.11053       -1.08640        3.19384
H          1.14674       -0.83788        2.75339
H          2.25190       -2.16220        3.07481
H          2.04721       -0.87501        4.26368
C          1.23829       -1.07473       -3.19816
H          1.10421       -0.20666       -3.84633
H          1.10903       -1.96625       -3.81612
H          0.42970       -1.06595       -2.47013
C         -3.66267       -1.30470       -3.56382
H         -3.80119       -2.36702       -3.35426
H         -4.63815       -0.82619       -3.46086
H         -3.36145       -1.21221       -4.60979
C         -1.66519       -1.28241        3.17826
H         -1.74477       -2.12325        3.87117
H         -0.80567       -1.47649        2.54063
H         -1.44520       -0.39045        3.76778
H          3.06135        0.77240        2.64687
H          2.74255       -1.96557       -1.92589
H         -1.66055       -1.15465       -2.77780
H         -3.79239       -1.02532        3.02575
