171
-217.84580362
P         -1.63210        0.42912       -0.41889
P          1.63923       -0.27121       -0.24608
C         -0.84098        1.49454       -1.63109
C          1.02423       -1.15164       -1.68165
C          0.05850        0.98388       -2.56126
C          0.74109        1.88177       -3.40475
C          0.47578        3.23758       -3.30878
C         -0.43830        3.72121       -2.39715
C         -1.08819        2.84367       -1.55202
C          1.26823       -2.49964       -1.77481
C          0.78844       -3.21744       -2.85291
C          0.05566       -2.57546       -3.82890
C         -0.20209       -1.21640       -3.75116
C          0.29950       -0.48205       -2.66017
Cl         1.35071        0.44374        2.97556
Cl        -1.74924       -0.42665        2.73923
C         -0.97177       -0.54332       -4.83288
C          1.76012        1.41170       -4.38329
H         -0.63772        4.77858       -2.33583
H         -1.78993        3.21431       -0.82241
H          1.83893       -2.99074       -1.00284
H          0.98952       -4.27316       -2.93288
H          1.00200        3.91841       -3.95658
H         -0.32303       -3.13240       -4.66926
C         -3.55544       -3.40353       -1.86657
C         -2.62464       -3.45677       -0.83610
C         -2.02463       -2.26848       -0.44251
C         -2.33802       -1.08616       -1.06550
C         -3.25876       -1.04977       -2.08450
C         -3.89973       -2.21250       -2.49674
H         -4.03698       -4.31141       -2.17413
H         -1.32559       -2.26002        0.37629
H         -3.49741       -0.10342       -2.54043
C         -4.74942        2.56890        2.09078
C         -3.42038        2.95739        2.20534
C         -2.48281        2.31516        1.40600
C         -2.86881        1.32595        0.53505
C         -4.18721        0.95666        0.43576
C         -5.15786        1.56914        1.21647
H         -5.47772        3.05116        2.71512
H         -1.43758        2.56168        1.47866
H         -4.46011        0.16912       -0.24442
C          4.19193       -3.01088        2.32137
C          2.81245       -3.17174        2.34163
C          2.05177       -2.34277        1.52705
C          2.65005       -1.36662        0.76811
C          4.01325       -1.20396        0.78527
C          4.81594       -2.03270        1.55822
H          4.79991       -3.66447        2.91901
H          0.98106       -2.44107        1.49485
H          4.44768       -0.41784        0.19512
C          4.01167        3.42647       -1.31091
C          2.93636        3.54801       -0.43994
C          2.22253        2.39844       -0.12592
C          2.56267        1.19541       -0.69186
C          3.61226        1.09588       -1.57228
C          4.36815        2.21732       -1.89465
H          4.60120        4.29828       -1.52657
H          1.39923        2.42897        0.56646
H          3.83705        0.13368       -2.00031
Pd        -0.08683        0.07075        1.29330
C         -0.77902       -5.04622       -0.24216
C         -2.28192       -4.75279       -0.08820
C         -3.07010       -5.95800       -0.63581
C         -2.63300       -4.57826        1.40175
H         -0.49381       -5.93593        0.31890
H         -0.52819       -5.21404       -1.28874
H         -0.17419       -4.21453        0.11461
H         -2.81184       -6.86688       -0.09240
H         -4.14410       -5.80533       -0.53094
H         -2.84525       -6.12828       -1.68856
H         -3.69759       -4.38014        1.52419
H         -2.38873       -5.47599        1.96928
H         -2.09033       -3.74404        1.84379
C         -6.08529       -1.15202       -3.12204
C         -4.99403       -2.14070       -3.57368
C         -5.65377       -3.51321       -3.81146
C         -4.38190       -1.65989       -4.89937
H         -6.50498       -1.45360       -2.16253
H         -5.68456       -0.14511       -3.01399
H         -6.89773       -1.10887       -3.84721
H         -6.43786       -3.43947       -4.56499
H         -4.92620       -4.24316       -4.16583
H         -6.11009       -3.89253       -2.89725
H         -3.93949       -0.67050       -4.79170
H         -3.60606       -2.34777       -5.23401
H         -5.13960       -1.60221       -5.68069
C         -3.33128        3.48920        4.64891
C         -3.02062        4.02048        3.23802
C         -3.81361        5.31489        2.97920
C         -1.51760        4.34922        3.16020
H         -4.39457        3.28450        4.76851
H         -2.78952        2.56225        4.83656
H         -3.04106        4.21159        5.41153
H         -4.88562        5.15326        3.08427
H         -3.52540        6.09544        3.68314
H         -3.62738        5.68446        1.97094
H         -0.91030        3.46949        3.37267
H         -1.25532        4.72357        2.17149
H         -1.24983        5.11637        3.88656
C         -6.70945       -0.40360        1.29410
C         -6.62089        1.12157        1.08897
C         -7.13598        1.48711       -0.31402
C         -7.52011        1.80383        2.13781
H         -7.74362       -0.74407        1.24626
H         -6.14875       -0.94310        0.53192
H         -6.30579       -0.68415        2.26671
H         -8.17101        1.17225       -0.44574
H         -7.08614        2.56394       -0.47432
H         -6.53793        1.00792       -1.08744
H         -7.53027        2.88534        2.00422
H         -8.54861        1.45342        2.05168
H         -7.17847        1.58259        3.14884
C          0.64808       -4.03591        3.35614
C          2.17007       -4.24611        3.23086
C          2.77226       -4.18242        4.64845
C          2.43575       -5.62912        2.61346
H          0.15416       -4.16882        2.39611
H          0.21163       -4.75571        4.04833
H          0.42066       -3.03602        3.72577
H          2.28055       -4.89369        5.31189
H          3.83512       -4.41920        4.64521
H          2.64953       -3.18595        5.07241
H          2.01698       -5.68936        1.60902
H          3.50521       -5.82544        2.54151
H          1.98712       -6.41913        3.21544
C          6.78277       -1.56863        3.04088
C          6.34345       -1.88470        1.59953
C          6.82832       -0.74579        0.68093
C          6.99578       -3.19858        1.13187
H          7.86297       -1.43634        3.09974
H          6.31011       -0.65229        3.39398
H          6.50721       -2.37126        3.72392
H          6.40576        0.21108        0.98700
H          7.91369       -0.65356        0.71779
H          6.54836       -0.93313       -0.35545
H          6.67505       -3.44835        0.12064
H          8.08250       -3.11558        1.13064
H          6.72616       -4.02910        1.78318
C          1.28347        4.85428        0.97982
C          2.59368        4.91280        0.17156
C          2.42169        5.95345       -0.95126
C          3.73411        5.34372        1.11019
H          1.37376        4.17353        1.82598
H          1.02812        5.83738        1.37503
H          0.45562        4.52167        0.35412
H          2.13436        6.92249       -0.54358
H          3.34470        6.09141       -1.51271
H          1.64824        5.63958       -1.65121
H          3.51755        6.30706        1.57155
H          3.87458        4.61161        1.90525
H          4.67558        5.43450        0.56935
C          5.72572        0.75959       -3.47815
C          5.60581        2.13897       -2.80078
C          6.86255        2.37819       -1.94485
C          5.52431        3.21394       -3.90224
H          5.85696       -0.03183       -2.74081
H          4.83931        0.53512       -4.07082
H          6.58696        0.73015       -4.14547
H          6.83559        3.36050       -1.47417
H          6.93860        1.63201       -1.15473
H          7.76599        2.32094       -2.55172
H          4.62579        3.08875       -4.50463
H          5.50751        4.21801       -3.48083
H          6.38454        3.15175       -4.56861
H         -1.59629       -1.25456       -5.37351
H          2.69600        1.95362       -4.24914
H         -0.30222       -0.07893       -5.55741
H         -1.62078        0.23412       -4.42718
H          1.42372        1.57528       -5.40809
H          1.97675        0.34970       -4.26204
