72
-108.39810484
Cl         1.83935       -0.35340        2.78561
Cl        -0.86971        1.23939        2.76431
P         -1.19676        1.01841       -0.32315
P          2.20204       -0.19242       -0.37298
C          3.37259        1.29529       -0.23063
C          4.07363        1.24087        1.12342
C          4.41636        1.29394       -1.35706
C          3.12963       -1.85169       -0.15975
C          4.48177       -1.78839       -0.86238
C          1.43296       -0.33805       -2.08589
C          1.35360        0.93242       -2.91387
C         -1.14542       -0.29243       -1.57844
C          0.05934       -0.98634       -2.03130
C         -0.38274       -2.11516       -2.85113
C         -1.83052       -2.09493       -2.92303
C         -2.29949       -0.96590       -2.14343
C          2.53837        2.57277       -0.29495
H          3.35164        1.20383        1.93885
H          4.72595        0.37307        1.20335
H          5.28058        0.68050       -1.10763
H          4.79510        2.30186       -1.53454
C          3.33480       -2.19189        1.31161
H          4.38062       -1.42320       -1.88461
H          4.93488       -2.78001       -0.91053
H          2.11275       -1.02503       -2.60263
H          0.97575        0.71830       -3.91556
H          2.31064        1.43620       -3.03160
H          0.65452        1.63360       -2.46753
H          0.27225       -2.78290       -3.41314
H         -2.45659       -2.79027       -3.48600
Pd         0.50470        0.43621        1.17074
H         -3.33846       -0.68389       -1.96074
C          2.29249       -2.95276       -0.80727
H          5.17865       -1.14939       -0.32317
H          3.86838       -1.40334        1.83874
H          2.38097       -2.34440        1.81395
H          3.91180       -3.11150        1.42060
H          1.25985       -2.88910       -0.47863
H          2.30659       -2.89024       -1.89492
H          2.67169       -3.94040       -0.53886
H          4.69349        2.12680        1.27114
H          4.01116        0.91916       -2.29433
H          1.99420        2.65983       -1.23205
H          1.81920        2.61596        0.52224
H          3.17587        3.45420       -0.20730
C         -2.88598        1.08208        0.32602
C         -3.37762        2.10705        1.09511
C         -4.70169        1.79208        1.40057
C         -4.96552        0.58558        0.80054
O         -3.86000        0.13911        0.13595
H         -2.83330        2.98310        1.40783
H         -5.38301        2.38019        1.99347
H         -5.90714        0.05197        0.83990
C         -0.80249        2.66856       -0.92543
C         -0.53185        3.69783       -0.05887
C         -0.27069        4.82788       -0.83509
C         -0.39536        4.43874       -2.14661
O         -0.72009        3.11380       -2.21682
H         -0.51974        3.62631        1.01744
H         -0.02132        5.81266       -0.47522
H         -0.25865        5.07645       -3.01118
Fe        -1.22094       -2.23355       -0.94092
C         -2.87024       -2.68664        0.16921
C         -1.90179       -1.95033        0.95749
C         -0.66851       -2.70739        0.97455
C         -0.86762       -3.90105        0.17095
C         -2.23783       -3.90238       -0.30956
H         -3.90491       -2.38334       -0.00656
H         -2.07998       -1.01358        1.48996
H          0.22456       -2.43343        1.53851
H         -0.14202       -4.70467        0.02389
H         -2.70919       -4.67916       -0.91590
