87
-129.18760407
P         -1.57939       -0.30400       -0.33381
P          1.66492        0.36456        0.03987
C         -1.24900        0.97554       -1.55246
C          1.50299       -0.69309       -1.41721
C         -0.20341        0.82390       -2.45550
C          0.05498        1.85980       -3.37522
C         -0.74693        2.98885       -3.36375
C         -1.78366        3.11654       -2.46399
C         -2.03030        2.10514       -1.55690
C          2.25001       -1.84703       -1.42412
C          2.13065       -2.75454       -2.45777
C          1.24487       -2.50592       -3.48293
C          0.47549       -1.35547       -3.49649
C          0.61397       -0.41854       -2.45384
Cl         1.22565        0.30060        3.18509
Cl        -1.48458       -1.44058        2.76428
H         -2.39514        4.00394       -2.46385
H         -2.83866        2.19702       -0.85088
H          2.93160       -2.04377       -0.61363
H          2.71874       -3.65766       -2.45599
H         -0.54596        3.77813       -4.06815
H          1.13654       -3.21625       -4.28500
C         -1.98036       -4.38296       -2.28662
C         -1.10670       -4.22405       -1.21953
C         -1.01892       -2.97599       -0.61528
C         -1.76219       -1.91916       -1.08693
C         -2.61971       -2.08134       -2.14942
C         -2.73342       -3.32169       -2.74970
H         -2.06537       -5.34890       -2.75453
C         -0.30027       -5.36567       -0.70927
H         -0.35798       -2.83212        0.22283
H         -3.18582       -1.23628       -2.50892
H         -3.40430       -3.45742       -3.58209
C         -5.25408        0.79471        2.12674
C         -5.27861       -0.32841        1.32350
C         -4.16930       -0.66158        0.56945
C         -3.04582        0.12927        0.62341
C         -3.01804        1.24624        1.42669
C         -4.12634        1.60164        2.18510
H         -6.11352        1.05080        2.72261
H         -6.15911       -0.94888        1.28910
H         -4.17075       -1.54145       -0.05263
H         -2.12651        1.84881        1.47257
C         -4.07827        2.79298        3.07554
C          5.52984       -0.63365        2.23480
C          5.42754        0.54482        1.52248
C          4.25279        0.85169        0.86207
C          3.19159       -0.02171        0.91491
C          3.29152       -1.19583        1.62547
C          4.46088       -1.51617        2.30427
H          6.44459       -0.87586        2.74847
H          6.26181        1.22587        1.48202
H          4.15773        1.77110        0.30830
H          2.44784       -1.86484        1.67192
C          4.56475       -2.79288        3.06191
C          1.27755        4.80965       -0.82421
C          2.16655        4.04538       -1.55468
C          2.29869        2.69531       -1.28719
C          1.54222        2.12440       -0.29100
C          0.67421        2.88821        0.45485
C          0.52452        4.24464        0.19595
H          1.16025        5.85717       -1.04359
H          2.74791        4.49750       -2.34141
H          2.97154        2.07917       -1.86252
H          0.11073        2.43203        1.25015
C         -0.46170        5.05179        0.96415
Pd        -0.08361       -0.28081        1.45431
C          1.17227        1.77008       -4.35589
C         -0.48543       -1.14043       -4.61423
H          1.74816        2.69640       -4.37443
H          1.85989        0.96119       -4.10665
H          0.79237        1.59193       -5.36263
H         -1.22525       -0.37904       -4.36506
H          0.03461       -0.82372       -5.51905
H         -1.02666       -2.05955       -4.84306
H         -0.81757       -5.87052        0.10769
H         -0.11230       -6.09875       -1.49498
H          0.66695       -5.02519       -0.33626
H         -3.46193        3.58200        2.64192
H         -5.07530        3.20371        3.24065
H         -3.65554        2.53164        4.04662
H          4.81669       -3.61952        2.39612
H          5.33416       -2.73386        3.83295
H          3.62088       -3.03178        3.55423
H         -0.18733        6.10751        0.97360
H         -1.45672        4.96524        0.52502
H         -0.52128        4.71480        2.00012
