105
-153.06734506
Cl        -0.99936        2.09960       -2.89373
Pd         0.04428        1.59727       -0.96344
P          1.34236        0.75357        0.78970
N          0.51263       -0.40291        1.81604
C         -0.00458       -1.67477        1.62084
C         -0.10108       -2.30727        0.35717
C         -0.76770       -3.54559        0.25120
C         -0.88792       -4.19016       -1.10875
C         -1.94912       -5.29852       -1.18317
C         -1.82592       -6.25144        0.00942
C         -2.00112       -5.49545        1.33582
C         -1.28038       -4.17105        1.38973
C         -1.13205       -3.55416        2.62466
C         -0.51390       -2.33628        2.73813
H         -0.43898       -1.85927        3.69993
H         -1.53277       -4.03696        3.49992
H         -3.06713       -5.31788        1.52101
H         -2.55211       -7.07263       -0.07200
H         -2.94833       -4.84521       -1.18309
H         -1.11041       -3.41247       -1.84962
C          0.63597       -1.80781       -0.82930
C         -0.05702       -1.15836       -1.88709
C          0.63228       -0.90473       -3.07655
C          1.94370       -1.27460       -3.22617
C          2.62367       -1.94165       -2.21456
C          4.03739       -2.39460       -2.46677
C          4.41719       -3.62852       -1.63619
C          4.10223       -3.39194       -0.15614
C          2.61591       -3.05915        0.06553
C          1.96923       -2.21827       -1.01315
H          2.04731       -3.99228        0.15565
H          4.71944       -2.56451        0.20980
H          5.47657       -3.88657       -1.77647
H          4.71923       -1.56765       -2.23875
H          2.45921       -1.05854       -4.14651
H          0.12336       -0.38402       -3.86845
N         -1.39035       -0.74643       -1.76917
P         -1.84025        0.23682       -0.37086
C         -2.80871       -0.74141        0.77770
C         -3.47006       -1.83883        0.28244
C         -4.26749       -2.59720        1.12016
C         -4.41326       -2.24911        2.45609
C         -3.74668       -1.12753        2.93286
C         -2.95380       -0.36767        2.09211
H         -2.44412        0.50890        2.45641
H         -3.84888       -0.85552        3.96951
C         -5.22951       -3.09227        3.37226
H         -4.77506       -3.46788        0.74173
H         -3.34659       -2.10159       -0.75620
C         -2.95698        1.56658       -0.83587
C         -2.87045        2.77704       -0.18892
C         -3.73372        3.80075       -0.53363
C         -4.68808        3.61631       -1.52514
C         -4.77346        2.37845       -2.14851
C         -3.90871        1.35543       -1.80372
H         -3.97496        0.39232       -2.28374
H         -5.52094        2.22090       -2.90717
C         -5.63049        4.71218       -1.88329
H         -3.66966        4.75208       -0.03368
H         -2.12709        2.91845        0.57989
H         -1.76095       -0.25320       -2.57125
H          0.66740       -0.11159        2.77352
C          1.29116        2.30373        1.69879
C          2.35165        3.17772        1.67493
C          2.26066        4.38421        2.34432
C          1.10286        4.72737        3.03028
C          0.04385        3.82948        3.04492
C          0.13826        2.62249        2.37638
H         -0.68370        1.92538        2.37549
H         -0.85500        4.08159        3.58128
C          1.01258        6.01796        3.76773
H          3.08953        5.07118        2.33307
H          3.24127        2.91765        1.12473
C          3.07706        0.28979        0.72271
C          3.87150        0.59540       -0.35604
C          5.21788        0.28631       -0.33415
C          5.78545       -0.31904        0.77800
C          4.97167       -0.61442        1.86374
C          3.62284       -0.30612        1.83543
H          2.99070       -0.52617        2.68074
H          5.39851       -1.09013        2.73004
C          7.23086       -0.67664        0.78409
H          5.84081        0.52253       -1.17998
H          3.44034        1.10224       -1.20150
Cl         1.93541        2.59798       -1.64400
H         -1.65953       -6.11678        2.17361
H         -1.87514       -5.84868       -2.13187
H         -0.83825       -6.72926       -0.00995
H          0.09071       -4.59422       -1.39306
H          4.39879       -4.26211        0.44618
H          2.48340       -2.55040        1.02792
H          4.16836       -2.59803       -3.53725
H          3.84996       -4.49683       -1.99449
H         -6.04699       -3.57763        2.83728
H         -4.61700       -3.87102        3.82891
H         -5.66675       -2.49450        4.17321
H         -6.52787        4.66938       -1.26458
H         -5.16889        5.69023       -1.74056
H         -5.93747        4.64141       -2.92769
H          1.61663        6.78891        3.28730
H         -0.01609        6.37936        3.80417
H          1.36595        5.90363        4.79341
H          7.83493        0.13158        0.36939
H          7.58739       -0.87091        1.79655
H          7.41071       -1.57195        0.18715
