115
-277.94248568
P         -1.80423       -0.33445       -0.08555
P          1.88514        0.67430       -0.12012
C         -1.90462       -2.10759        0.20542
C         -0.77998       -2.83461        0.53152
H          0.12848       -2.33236        0.81931
C         -0.80625       -4.21030        0.42694
H          0.08878       -4.79564        0.57197
C         -1.95423       -4.85482       -0.00382
C         -3.11282       -4.12052       -0.20299
H         -3.99716       -4.62473       -0.55800
C         -3.09038       -2.74533       -0.09124
H         -3.96570       -2.16511       -0.33963
C         -3.32213        0.43780        0.52067
C         -4.05164       -0.13226        1.53834
H         -3.70587       -1.04328        2.00039
C         -5.21266        0.47007        1.97566
H         -5.79786        0.02991        2.76731
C         -5.64980        1.64709        1.39799
C         -4.91489        2.21052        0.37419
H         -5.27862        3.11783       -0.08171
C         -3.75160        1.60888       -0.06074
H         -3.18686        2.04459       -0.86775
C         -1.54538        0.11167       -1.83689
C         -1.02028        1.38594       -1.96086
H         -0.74897        1.92971       -1.07116
C         -0.68612        1.91539       -3.20679
C         -1.09965        1.21719       -4.33532
H         -0.88970        1.62179       -5.31130
C         -1.61786       -0.05715       -4.22029
H         -1.80716       -0.63176       -5.11119
C         -1.73655       -0.68078       -2.97829
C          1.64746        0.13063       -1.84533
C          1.12888       -1.14902       -1.88932
H          0.85969       -1.63510       -0.96742
C          0.80118       -1.75843       -3.09952
C          1.21861       -1.13556       -4.26969
H          1.01389       -1.60363       -5.21798
C          1.73862        0.14289       -4.23458
H          1.93427        0.65832       -5.15965
C          1.85087        0.84526       -3.03476
C         -1.71377       -2.19510       -2.96359
H         -2.38379       -2.57263       -3.74423
H         -2.15770       -2.55229       -2.03840
C         -0.27534       -2.80874       -3.14107
H         -0.06970       -3.56427       -2.37506
H         -0.20648       -3.35519       -4.08833
C          0.39418        2.95805       -3.32250
H          0.20198        3.76611       -2.60881
H          0.32131        3.44049       -4.30368
C          1.83230        2.35610       -3.11672
H          2.49900        2.68577       -3.92183
H          2.28578        2.77395       -2.22151
C          2.32935        2.41361       -0.04134
C          1.34656        3.36509        0.12421
C          3.61427        2.78074       -0.38374
C          1.61911        4.68137       -0.18100
C          3.88261        4.09957       -0.69888
C          2.86700        5.04258       -0.66511
C          3.25993       -0.25487        0.59324
C          4.04024       -1.01488       -0.24757
C          3.55197       -0.19744        1.93550
C          5.10835       -1.72505        0.25868
H          3.81317       -1.05381       -1.30054
C          4.61840       -0.90784        2.44434
H          2.94276        0.40563        2.58848
C          5.40487       -1.67366        1.60721
H          5.72241       -2.33506       -0.38465
H          4.85401       -0.88481        3.49674
Pd        -0.01457        0.42972        1.23770
Cl        -1.52325       -0.04196        2.84294
Cl         1.27696        1.55111        2.70550
H          4.84471        4.39107       -1.09067
H          4.37351        2.02414       -0.50575
H          0.83428        5.42019       -0.16485
H          0.35324        3.07570        0.42486
C         -3.15943       -7.02783       -0.50852
C         -1.81796       -6.24208       -0.57898
C         -1.31095       -6.04587       -2.04280
F         -3.60717       -6.95731        0.75383
F         -4.05242       -6.46941       -1.33731
F         -2.93780       -8.30678       -0.85007
F         -0.89561       -6.93456        0.09369
F         -0.07375       -5.53880       -1.97126
F         -1.30248       -7.22087       -2.68663
F         -2.10347       -5.16177       -2.66525
C         -8.11144        1.52325        1.08336
C         -6.95789        2.27770        1.80407
C         -7.11584        2.26413        3.35328
F         -7.92985        1.68149       -0.23642
F         -8.04830        0.22031        1.39539
F         -9.28996        2.04449        1.45600
F         -6.99361        3.55235        1.40571
F         -6.00562        2.80402        3.87822
F         -8.18959        2.99392        3.69330
F         -7.25208        1.00103        3.78058
C          6.08265       -3.97948        2.24643
C          6.53339       -2.49219        2.18015
C          7.82364       -2.29853        1.32965
F          5.01626       -4.03907        3.05838
F          5.73818       -4.39139        1.01752
F          7.08212       -4.72874        2.73561
F          6.80500       -2.09189        3.42535
F          8.04096       -0.97933        1.21993
F          8.85586       -2.88730        1.95300
F          7.64376       -2.83066        0.11276
C          2.37467        5.96262       -2.88132
C          3.01104        6.29457       -1.49362
C          2.34455        7.51765       -0.80001
F          2.49204        7.01822       -3.69774
F          3.02991        4.90551       -3.38153
F          1.08871        5.63182       -2.70717
F          4.30118        6.57917       -1.68630
F          2.59931        8.62155       -1.51947
F          1.02292        7.31869       -0.70067
F          2.87971        7.63097        0.42488
