111
-148.55612484
P         -2.24687       -2.15674       -1.31895
P          0.13665       -0.20390       -0.60690
C         -1.18168       -1.52895       -2.63795
C         -0.15554       -0.66353       -2.32737
C         -2.35914       -4.00143       -1.35008
C         -1.45457       -4.62297       -0.30736
C         -1.39384       -1.91118       -3.94686
H         -2.18822       -2.60253       -4.17722
C         -0.58336       -1.40868       -4.94993
H         -0.74887       -1.70354       -5.97330
C          0.43612       -0.52927       -4.63992
H          1.06641       -0.13604       -5.42052
C          0.65171       -0.15754       -3.32484
H          1.44666        0.52440       -3.07064
Pd        -1.42399       -1.35329        0.67612
Cl        -3.17512       -2.27013        1.73195
Cl        -0.46594       -0.50363        2.51812
C         -3.86116       -4.25215       -1.12591
C         -4.03723       -1.72038       -1.52199
H         -1.52040       -5.71340       -0.32051
H         -0.41061       -4.34355       -0.46963
H         -1.73164       -4.28892        0.69428
H         -4.04410       -4.34963       -0.04675
H         -4.15895       -5.21667       -1.56490
H         -4.33466       -1.25625       -0.57228
C         -4.72408       -3.09028       -1.69361
C         -4.26366       -0.77228       -2.68239
H         -2.06346       -4.31336       -2.36027
H         -4.90616       -3.26263       -2.76312
H         -5.71999       -3.07877       -1.22576
H         -4.00657       -1.24896       -3.62930
H         -5.30907       -0.46160       -2.74653
H         -3.64648        0.12378       -2.59662
C         -1.25971        4.03761        0.28780
C         -2.17586        3.07275       -0.20595
C         -1.69491        1.80960       -0.51231
C         -0.39256        1.46919       -0.25100
C          0.45418        2.35340        0.36549
C          0.04390        3.63768        0.67746
O         -1.62430        5.40878        0.34372
C         -3.66970        3.37029       -0.40832
H         -2.33774        1.06489       -0.94834
H          1.44796        2.02444        0.60951
C          1.01560        4.57939        1.40482
C          4.39226       -0.94044        0.85223
C          4.15008        0.06571       -0.11754
C          2.84694        0.26871       -0.54064
C          1.82381       -0.52792       -0.09415
C          2.07490       -1.57774        0.75028
C          3.35318       -1.83361        1.21692
O          5.65905       -1.02650        1.48857
C          5.26678        0.95634       -0.68526
H          2.61173        1.07490       -1.21323
H          1.24635       -2.18629        1.06793
C          3.57765       -3.03356        2.14967
C         -3.91764        3.73494       -1.87943
C         -4.51424        2.12863       -0.04347
C         -4.14869        4.51311        0.50572
C          1.95085        3.77830        2.33927
C          1.86951        5.32559        0.36892
C          0.25560        5.58682        2.28663
C         -1.36257        6.11540       -0.86204
H         -4.97212        3.94357       -2.05810
H         -3.34571        4.61550       -2.16562
H         -3.61914        2.91786       -2.53575
H         -4.34853        1.30858       -0.73785
H         -4.27213        1.77787        0.95945
H         -5.57848        2.36118       -0.07039
H         -5.22387        4.66467        0.41355
H         -3.92538        4.28908        1.54827
H         -3.66241        5.45246        0.25562
H          2.55521        4.44866        2.94991
H          1.37418        3.14203        3.01014
H          2.63966        3.14797        1.77968
H          2.58688        5.98533        0.85634
H          2.42437        4.62274       -0.25221
H          1.24849        5.93093       -0.28788
H          0.94597        6.20947        2.85509
H         -0.36572        6.24762        1.68691
H         -0.39238        5.06693        2.99148
H         -0.75612        6.99448       -0.64360
H         -0.83303        5.47584       -1.56934
H         -2.30073        6.44532       -1.30766
C          5.77099       -0.22824        2.66034
C          6.60994        0.20510       -0.72840
C          4.94163        1.37713       -2.13669
C          5.39566        2.22308        0.17435
C          4.99505       -3.61043        1.98335
C          3.35090       -2.59155        3.60344
C          2.58573       -4.17315        1.82113
H          6.95194       -0.05511        0.27007
H          6.51507       -0.71766       -1.29978
H          7.38496        0.81399       -1.19326
H          5.78636        1.89827       -2.58666
H          4.71962        0.50565       -2.75209
H          4.08969        2.05402       -2.17995
H          4.46530        2.78982        0.16611
H          5.62457        1.97707        1.20857
H          6.18714        2.87104       -0.20130
H          5.75407       -2.88894        2.27510
H          5.13135       -4.49891        2.59938
H          5.17767       -3.88587        0.94521
H          4.04435       -1.80403        3.88852
H          2.34010       -2.20575        3.73457
H          3.48653       -3.42561        4.29137
H          2.62349       -4.42685        0.76205
H          1.56153       -3.90244        2.07340
H          2.82689       -5.07132        2.38919
H          6.00847       -0.86304        3.51383
H          6.57898        0.49265        2.53681
H          4.83661        0.30163        2.85020
