58
-89.86587904
P          1.65363        0.23055        0.81500
C          2.97232        1.43159        0.58572
C          3.98804        1.15876       -0.30211
C          4.99012        2.08911       -0.51119
C          4.96390        3.29132        0.16721
C          3.93744        3.56616        1.04897
C          2.93646        2.63365        1.25533
H          2.12071        2.84602        1.92736
H          3.98710        0.22270       -0.83739
C          2.24903       -1.41346        0.40096
C          3.43471       -1.85186        0.94556
C          3.89394       -3.12558        0.65971
C          3.15712       -3.95435       -0.16340
C          1.96383       -3.51329       -0.69946
C          1.51126       -2.23866       -0.41427
H          0.57468       -1.89133       -0.81371
H          3.99597       -1.19577        1.59228
C          1.16071        0.20389        2.58133
C          0.14781       -0.89069        2.88182
C         -1.28033       -0.50639        2.53483
P         -1.65053       -0.38387        0.73572
C         -3.23606        0.45213        0.62588
C         -4.36161       -0.24581        0.25251
C         -5.57751        0.40766        0.16427
C         -5.65550        1.75647        0.45052
C         -4.52283        2.45241        0.82466
C         -3.30813        1.79589        0.91304
H         -2.41304        2.32739        1.19611
H         -4.28341       -1.29706        0.02685
C         -1.72630       -1.99579       -0.05620
C         -1.59418       -3.16359        0.66108
C         -1.62795       -4.38000        0.00331
C         -1.79523       -4.41982       -1.36703
C         -1.93251       -3.24702       -2.08226
C         -1.89829       -2.03357       -1.42133
H         -1.99465       -1.10524       -1.96125
H         -1.46208       -3.12579        1.72952
Pd        -0.13208        0.82085       -0.55136
Cl         1.22445        2.26349       -1.61030
Cl        -1.84983        1.19933       -1.95812
H         -1.99942       -1.21985        2.94419
H         -1.52658        0.46333        2.97185
H          0.42994       -1.80699        2.34604
H          0.19974       -1.15196        3.95056
H          2.08631        0.05736        3.14366
H          0.77131        1.18595        2.85399
H          5.78521        1.87755       -1.20712
H          3.91150        4.50848        1.57113
H          4.82402       -3.46999        1.08117
H          1.38063       -4.16147       -1.33258
H         -6.46071       -0.13474       -0.13067
H         -4.58274        3.50587        1.04347
H         -1.52019       -5.29606        0.56057
H         -2.06307       -3.27549       -3.15150
H          5.74180        4.01907        0.00295
H          3.51220       -4.94762       -0.38483
H         -6.60169        2.26769        0.37908
H         -1.81910       -5.36803       -1.87893
