105
-153.06904980
Cl        -0.98561        2.11192       -2.86759
Pd         0.03872        1.55419       -0.94019
P          1.37258        0.74670        0.80114
N          0.54383       -0.42086        1.81750
C          0.00830       -1.68401        1.61241
C         -0.09076       -2.30873        0.34540
C         -0.76737       -3.53985        0.22797
C         -0.88049       -4.17310       -1.13947
C         -1.35737       -5.63418       -1.13076
C         -2.50756       -5.83308       -0.13923
C         -2.06705       -5.45691        1.28343
C         -1.31546       -4.15211        1.35672
C         -1.16222       -3.54715        2.59701
C         -0.51751       -2.34418        2.72284
H         -0.43855       -1.87534        3.68833
H         -1.57811       -4.02767        3.46643
H         -2.93810       -5.40213        1.94905
H         -3.35535       -5.20352       -0.43714
H         -1.65453       -5.95382       -2.13955
H         -1.56487       -3.56553       -1.74321
C          0.63791       -1.80112       -0.84174
C         -0.07225       -1.17482       -1.90250
C          0.60766       -0.91822       -3.09685
C          1.92573       -1.26359       -3.24776
C          2.62187       -1.91006       -2.23362
C          4.04139       -2.34247       -2.48842
C          4.43709       -3.57415       -1.66195
C          4.12570       -3.34377       -0.18008
C          2.63765       -3.02305        0.04898
C          1.97723       -2.19037       -1.02774
H          2.07733       -3.96092        0.14330
H          4.73829       -2.51281        0.18553
H          5.49848       -3.82103       -1.80704
H          4.71206       -1.50727       -2.25750
H          2.43365       -1.04559       -4.17185
H          0.08586       -0.41494       -3.89167
N         -1.41048       -0.77970       -1.77878
P         -1.86139        0.21139       -0.38582
C         -2.81698       -0.74708        0.78944
C         -3.50575       -1.83999        0.32216
C         -4.29649       -2.57528        1.18662
C         -4.39884       -2.21583        2.52357
C         -3.72048       -1.08812        2.96753
C         -2.93425       -0.35140        2.10034
H         -2.41184        0.52730        2.44049
H         -3.81065       -0.79143        3.99850
C         -5.24933       -3.00444        3.45697
H         -4.83534       -3.43544        0.82813
H         -3.41431       -2.11421       -0.71672
C         -2.97859        1.53692       -0.85979
C         -2.89725        2.74788       -0.21318
C         -3.75930        3.77068       -0.56391
C         -4.70719        3.58474       -1.56129
C         -4.78739        2.34643       -2.18442
C         -3.92388        1.32436       -1.83363
H         -3.98689        0.36087       -2.31322
H         -5.53003        2.18777       -2.94756
C         -5.64862        4.67931       -1.92597
H         -3.69917        4.72241       -0.06421
H         -2.15863        2.89045        0.56007
H         -1.79203       -0.29770       -2.58263
H          0.69812       -0.13706        2.77727
C          1.31562        2.29378        1.71452
C          2.37363        3.17086        1.69296
C          2.27881        4.37615        2.36406
C          1.12397        4.70978        3.05976
C          0.06072        3.81693        3.05657
C          0.15897        2.61125        2.38620
H         -0.66420        1.91585        2.37614
H         -0.84558        4.07346        3.57813
C          1.00828        6.02077        3.75647
H          3.10138        5.07045        2.34440
H          3.26339        2.91544        1.14084
C          3.10994        0.29416        0.72997
C          3.89920        0.60630       -0.35077
C          5.24829        0.30896       -0.33212
C          5.82133       -0.30100        0.77494
C          5.01603       -0.58760        1.86906
C          3.66449       -0.29108        1.84406
H          3.03783       -0.50901        2.69402
H          5.45268       -1.04551        2.74006
C          7.27770       -0.60928        0.79993
H          5.86866        0.55959       -1.17564
H          3.46196        1.11104       -1.19435
Cl         1.92117        2.57256       -1.63036
H         -1.43159       -6.24959        1.69596
H         -0.52154       -6.28750       -0.85042
H         -2.88037       -6.86658       -0.17471
H          0.09102       -4.10182       -1.64430
H          4.43135       -4.21316        0.41879
H          2.50559       -2.51387        1.01116
H          4.17492       -2.54037       -3.55959
H          3.87727       -4.44744       -2.01979
H         -5.31672       -4.04698        3.14268
H         -4.84005       -2.99042        4.46814
H         -6.26095       -2.59834        3.49671
H         -6.55201        4.63274       -1.31633
H         -5.19090        5.65811       -1.77608
H         -5.94495        4.61047       -2.97357
H          1.98738        6.39471        4.05907
H          0.55017        6.76601        3.10477
H          0.39471        5.93579        4.65449
H          7.64039       -0.87156       -0.19502
H          7.84974        0.25034        1.15160
H          7.49157       -1.44994        1.46152
