111
-148.55434722
P         -2.54668       -2.08584       -0.92583
P          0.16995       -0.41537       -0.47873
C         -1.39253       -1.80730       -2.30079
C         -0.21005       -1.12742       -2.09312
C         -3.36700       -3.74183       -1.02035
C         -2.80299       -4.69602        0.00959
C         -1.70668       -2.26702       -3.56366
H         -2.64167       -2.77729       -3.72767
C         -0.82980       -2.05549       -4.61372
H         -1.07545       -2.41538       -5.59951
C          0.35707       -1.38142       -4.40080
H          1.03884       -1.21455       -5.21842
C          0.66504       -0.91136       -3.13679
H          1.57964       -0.36786       -2.95646
Pd        -1.32390       -1.46604        0.92593
Cl        -3.10027       -2.18097        2.10342
Cl        -0.07518       -0.83210        2.68228
C         -4.85603       -3.39583       -0.83116
C         -4.02682       -0.97731       -0.97101
H         -3.29058       -5.67239       -0.04118
H         -1.72976       -4.84410       -0.13230
H         -2.94859       -4.30777        1.01862
H         -5.10666       -3.49160        0.23434
H         -5.49022       -4.12988       -1.35120
H         -4.14483       -0.58667        0.04867
C         -5.17345       -1.94894       -1.30733
C         -3.84144        0.15256       -1.96081
H         -3.18975       -4.12205       -2.03428
H         -5.33091       -1.94730       -2.39471
H         -6.11865       -1.59066       -0.87180
H         -2.98742        0.77740       -1.69098
H         -3.65830       -0.23705       -2.96391
H         -4.72598        0.79192       -2.00832
C         -1.20533        3.92117       -0.25532
C         -1.02537        3.31136       -1.52381
C         -0.58811        1.99791       -1.56548
C         -0.40563        1.27938       -0.41351
C         -0.68515        1.83105        0.80829
C         -1.12475        3.13710        0.92348
O         -1.42532        5.32141       -0.16637
C         -1.26774        4.06384       -2.84141
H         -0.37732        1.51686       -2.50411
H         -0.54392        1.21755        1.68092
C         -1.47745        3.67854        2.31712
C          4.51513       -0.74298        0.83914
C          3.79703        0.46198        1.04640
C          2.47687        0.51422        0.63427
C          1.89307       -0.53923       -0.01889
C          2.61111       -1.66935       -0.30979
C          3.93950       -1.78584        0.06784
O          5.79178       -0.92072        1.43553
C          4.40395        1.68920        1.74411
H          1.87592        1.38336        0.83563
H          2.11275       -2.46771       -0.83214
C          4.72411       -3.04470       -0.33425
C         -2.40751        5.08762       -2.69031
C          0.02670        4.77227       -3.26790
C         -1.68665        3.08553       -3.96259
C         -2.04715        2.54961        3.20758
C         -0.20808        4.23479        2.98012
C         -2.55866        4.77098        2.23441
C         -0.23291        6.08479       -0.03245
H         -3.31854        4.59936       -2.34578
H         -2.15159        5.86219       -1.97145
H         -2.62294        5.57734       -3.63965
H         -0.11065        5.30292       -4.20972
H          0.34555        5.49394       -2.51972
H          0.83420        4.05248       -3.40011
H         -0.87305        2.41724       -4.24069
H         -2.53777        2.48038       -3.65206
H         -1.97468        3.62932       -4.86199
H         -2.42189        2.95069        4.14886
H         -2.87147        2.04088        2.70843
H         -1.28943        1.80827        3.45628
H         -0.42587        4.62685        3.97319
H          0.54545        3.45432        3.08375
H          0.22648        5.03739        2.38860
H         -2.20522        5.63948        1.68469
H         -3.44626        4.39398        1.72744
H         -2.85268        5.10750        3.22827
H         -0.24107        6.61602        0.91903
H          0.64220        5.43518       -0.07774
H         -0.18081        6.82180       -0.83376
C          5.74587       -1.48751        2.73906
C          4.13424        1.59603        3.25368
C          5.91660        1.79034        1.47789
C          3.76490        2.99214        1.20924
C          6.21587       -2.72619       -0.54335
C          4.55926       -4.11622        0.75401
C          4.19486       -3.61285       -1.67088
H          4.58411        0.70254        3.67996
H          4.54011        2.46103        3.77754
H          3.06326        1.55294        3.45097
H          6.33312        2.69413        1.92193
H          6.45147        0.94191        1.89696
H          6.11669        1.81498        0.40722
H          4.28060        3.86673        1.60515
H          3.82182        3.03385        0.12184
H          2.71948        3.08009        1.50099
H          6.33942       -1.93540       -1.28251
H          6.68445       -2.39540        0.38015
H          6.75905       -3.60430       -0.89173
H          4.94308       -3.76915        1.71028
H          3.50780       -4.36768        0.89087
H          5.09309       -5.02825        0.48819
H          3.18819       -4.01514       -1.56818
H          4.82910       -4.42575       -2.02380
H          4.17973       -2.84184       -2.44085
H          4.71474       -1.69938        3.02491
H          6.32559       -2.41026        2.75682
H          6.18651       -0.79492        3.45591
