171
-217.84595984
P         -1.57401        0.39435       -0.43424
P          1.61547       -0.34736       -0.27636
C         -0.81411        1.41140       -1.70620
C          1.01178       -1.25528       -1.70467
C          0.03834        0.84699       -2.64794
C          0.69141        1.69309       -3.56492
C          0.44104        3.05458       -3.52740
C         -0.42840        3.59184       -2.60223
C         -1.04857        2.76478       -1.68663
C          1.26700       -2.60350       -1.76527
C          0.76771       -3.35927       -2.80789
C         -0.00928       -2.75820       -3.77525
C         -0.27997       -1.40072       -3.73211
C          0.26027       -0.62371       -2.68912
Cl         1.44079        0.26687        2.94129
Cl        -1.70418       -0.40143        2.78493
C         -1.12870       -0.79143       -4.79296
C          1.63195        1.14998       -4.58334
H         -0.62084        4.65220       -2.59080
H         -1.72233        3.17818       -0.95415
H          1.85888       -3.06762       -0.99279
H          0.97851       -4.41491       -2.86022
H          0.93719        3.69642       -4.23579
H         -0.41694       -3.34624       -4.58021
C         -3.65967       -3.36341       -1.83247
C         -2.71971       -3.45837       -0.81311
C         -2.05771       -2.29826       -0.43530
C         -2.34486       -1.10156       -1.04327
C         -3.28095       -1.02164       -2.04432
C         -3.96024       -2.16057       -2.46082
H         -4.18965       -4.24504       -2.13964
H         -1.32031       -2.32256        0.34826
H         -3.48609       -0.05964       -2.48257
C         -4.59288        2.71996        2.03133
C         -3.25342        3.08909        2.09159
C         -2.35048        2.38773        1.30370
C         -2.77071        1.34592        0.51537
C         -4.09321        0.98243        0.48439
C         -5.03556        1.66689        1.23861
H         -5.30713        3.26165        2.62065
H         -1.30504        2.64434        1.31444
H         -4.39342        0.14776       -0.12457
C          4.28902       -2.93552        2.31794
C          2.92616       -3.20757        2.28216
C          2.13030       -2.42596        1.45579
C          2.67720       -1.40274        0.72213
C          4.02350       -1.14201        0.77628
C          4.86138       -1.91194        1.57248
H          4.92669       -3.52432        2.95008
H          1.06846       -2.59913        1.40556
H          4.41314       -0.32060        0.20221
C          3.86165        3.47519       -1.17097
C          2.84651        3.49539       -0.22220
C          2.15561        2.31467        0.01035
C          2.47091        1.17229       -0.68174
C          3.47704        1.16649       -1.61613
C          4.19835        2.32616       -1.87709
H          4.42234        4.37154       -1.35777
H          1.37755        2.28072        0.75352
H          3.70083        0.24545       -2.12687
Pd        -0.07040        0.00630        1.29870
C         -1.00589       -5.26261       -0.59520
C         -2.38589       -4.78523       -0.11620
C         -3.42796       -5.87381       -0.43874
C         -2.36340       -4.58162        1.41252
H         -0.71695       -6.19005       -0.10115
H         -1.01349       -5.43994       -1.67032
H         -0.24330       -4.51379       -0.38643
H         -3.21246       -6.78995        0.11106
H         -4.43062       -5.54767       -0.16260
H         -3.42468       -6.12276       -1.49957
H         -2.17857       -5.52380        1.92819
H         -1.58296       -3.88524        1.71485
H         -3.31720       -4.18707        1.76195
C         -6.41196       -2.45154       -2.86155
C         -5.06525       -2.11046       -3.52545
C         -4.76263       -3.13250       -4.63770
C         -5.17600       -0.71250       -4.16528
H         -7.22590       -2.41098       -3.58517
H         -6.39638       -3.45205       -2.43053
H         -6.63597       -1.74699       -2.06076
H         -5.51762       -3.08812       -5.42248
H         -3.79285       -2.93469       -5.09253
H         -4.74837       -4.15052       -4.25081
H         -5.44423        0.03961       -3.42372
H         -4.23634       -0.41780       -4.63120
H         -5.94578       -0.70043       -4.93678
C         -2.46438        5.46014        2.05860
C         -2.75543        4.25106        2.96318
C         -1.46763        3.83524        3.70447
C         -3.80318        4.65592        4.01859
H         -3.36981        5.78563        1.54672
H         -2.08115        6.30006        2.63777
H         -1.72649        5.20873        1.29827
H         -0.64701        3.64989        3.01341
H         -1.14390        4.61680        4.39149
H         -1.63241        2.92530        4.28110
H         -4.70301        5.05529        3.55172
H         -4.08308        3.80244        4.63592
H         -3.40915        5.42935        4.67779
C         -6.60850       -0.24122        1.64267
C         -6.50396        1.22337        1.17656
C         -7.00808        1.34085       -0.27409
C         -7.40159        2.09050        2.07954
H         -7.64377       -0.58154        1.63216
H         -6.03352       -0.90481        0.99765
H         -6.22658       -0.34954        2.65756
H         -8.05387        1.04349       -0.34944
H         -6.92181        2.36738       -0.62973
H         -6.43225        0.70539       -0.94579
H         -7.37002        3.13665        1.77563
H         -8.43931        1.76199        2.02275
H         -7.09120        2.02277        3.12204
C          1.57263       -5.31821        2.23734
C          2.26879       -4.29155        3.14779
C          1.22827       -3.63082        4.07288
C          3.30110       -5.03053        4.02023
H          2.28625       -5.77258        1.55032
H          1.11252       -6.11330        2.82380
H          0.79058       -4.84724        1.64527
H          0.75427       -4.36923        4.71907
H          1.69923       -2.87867        4.70526
H          0.44407       -3.13712        3.50024
H          4.05139       -5.52666        3.40486
H          3.80721       -4.34202        4.69665
H          2.81669       -5.79392        4.62899
C          6.72645       -1.26251        3.11462
C          6.36969       -1.64114        1.66579
C          6.79728       -0.48523        0.73900
C          7.14258       -2.90695        1.25206
H          7.78965       -1.04292        3.21043
H          6.16906       -0.38034        3.42908
H          6.48896       -2.07121        3.80478
H          6.56392       -0.71059       -0.30149
H          6.29670        0.44342        1.01276
H          7.87120       -0.31187        0.80624
H          6.91683       -3.74356        1.91215
H          6.88119       -3.20201        0.23596
H          8.21838       -2.73600        1.28773
C          2.61312        4.44035        2.08932
C          2.48055        4.74832        0.58534
C          1.02947        5.14592        0.26609
C          3.40091        5.93620        0.24675
H          1.93898        3.64058        2.39299
H          3.62923        4.12859        2.32981
H          2.37746        5.31871        2.68986
H          0.92134        5.38580       -0.79103
H          0.34215        4.33350        0.49642
H          0.72656        6.01899        0.84376
H          3.13189        6.81325        0.83534
H          4.44234        5.69925        0.46377
H          3.31932        6.20846       -0.80539
C          5.15571        3.45798       -3.90881
C          5.37942        2.35406       -2.85795
C          5.54375        1.00746       -3.58953
C          6.67321        2.64287       -2.07451
H          4.22383        3.29699       -4.44893
H          5.10713        4.44326       -3.44709
H          5.96757        3.47322       -4.63579
H          6.37296        1.04984       -4.29559
H          5.75282        0.20136       -2.88653
H          4.64552        0.75165       -4.15019
H          6.84298        1.87876       -1.31641
H          7.53714        2.65741       -2.73873
H          6.62237        3.60741       -1.57049
H         -0.56381       -0.65943       -5.71669
H          2.49170        1.80826       -4.70841
H         -1.51171        0.18317       -4.48737
H         -1.98650       -1.42671       -5.01499
H          1.14286        1.05399       -5.55354
H          2.00817        0.16755       -4.29488
