87
-129.18880791
P         -1.62516       -0.33922       -0.23306
P          1.60979        0.35703       -0.08850
C         -1.34974        0.96788       -1.44385
C          1.41775       -0.67217       -1.55322
C         -0.35414        0.86865       -2.41132
C         -0.13323        1.96123       -3.27273
C         -0.92591        3.08989       -3.15326
C         -1.91638        3.16437       -2.19821
C         -2.12023        2.10100       -1.34149
C          2.19771       -1.79803       -1.66034
C          2.05337       -2.64546       -2.74080
C          1.11601       -2.36074       -3.71028
C          0.31635       -1.23383       -3.62176
C          0.47473       -0.36102       -2.52713
Cl         1.24202        0.72145        3.11655
Cl        -1.43220       -1.10981        2.93492
H         -2.52284        4.05123       -2.11383
H         -2.88670        2.15710       -0.58675
H          2.92381       -2.01781       -0.89558
H          2.66404       -3.52990       -2.81998
H         -0.75403        3.92091       -3.81617
H          0.99164       -3.02397       -4.54945
C         -1.46302       -4.50494       -2.03716
C         -0.67859       -4.21207       -0.92991
C         -0.76408       -2.94121       -0.37544
C         -1.58412       -1.98872       -0.93486
C         -2.35503       -2.28449       -2.03433
C         -2.29755       -3.55097       -2.58609
H         -1.41358       -5.49025       -2.46831
C          0.21610       -5.23690       -0.32708
H         -0.17959       -2.69808        0.49542
H         -2.98592       -1.52098       -2.46180
H         -2.89825       -3.79027       -3.44822
C         -5.49671        0.40217        2.05077
C         -5.40971       -0.66078        1.17364
C         -4.23745       -0.88572        0.47696
C         -3.16253       -0.04808        0.66153
C         -3.24641        1.01004        1.53745
C         -4.41910        1.25595        2.24102
H         -6.40533        0.57345        2.60249
H         -6.25245       -1.31836        1.03633
H         -4.15274       -1.71758       -0.20266
H         -2.38985        1.64567        1.69124
C         -4.49141        2.37941        3.21415
C          5.19268       -1.04891        2.34873
C          5.22878        0.18269        1.72515
C          4.14603        0.61054        0.98034
C          3.03729       -0.19445        0.86465
C          2.99765       -1.42033        1.48864
C          4.07990       -1.87058        2.23457
H          6.03089       -1.38016        2.93777
H          6.09734        0.81303        1.82382
H          4.15635        1.57381        0.49750
H          2.11512       -2.03309        1.40708
C          4.01800       -3.18227        2.93455
C          1.84523        4.77184       -1.12677
C          2.67881        3.87104       -1.76039
C          2.61837        2.52854       -1.43522
C          1.72742        2.10259       -0.47846
C          0.90491        2.99843        0.16431
C          0.95231        4.35076       -0.15087
H          1.88014        5.81545       -1.38924
H          3.36900        4.21172       -2.51468
H          3.24800        1.80784       -1.93317
H          0.21333        2.64752        0.91141
C          0.02644        5.31109        0.50830
Pd        -0.06187       -0.09004        1.47958
C          0.93662        1.93232       -4.30869
C         -0.69494       -0.97527       -4.68418
H          1.65413        1.13292       -4.12083
H          0.51247        1.77956       -5.30178
H          1.48988        2.87241       -4.32184
H         -1.24807       -1.88463       -4.92325
H         -1.42029       -0.22324       -4.37191
H         -0.21656       -0.62406       -5.59925
H         -0.28740       -5.76007        0.48698
H          0.52275       -5.97771       -1.06685
H          1.12040       -4.77784        0.07572
H         -4.09905        2.07400        4.18511
H         -3.90784        3.23444        2.86960
H         -5.51975        2.71481        3.35579
H          3.54068       -3.07657        3.90972
H          3.44445       -3.90843        2.35646
H          5.01568       -3.59527        3.08982
H          0.46377        6.30915        0.55935
H         -0.91301        5.38151       -0.04179
H         -0.20373        4.99717        1.52751
