87
-129.18568200
P         -1.67977       -0.36771       -0.12998
P          1.54469        0.32563       -0.19773
C         -1.44010        0.96678       -1.32749
C          1.30812       -0.65809       -1.68218
C         -0.49519        0.92580       -2.35103
C         -0.29421        2.07783       -3.13614
C         -1.06166        3.20492       -2.89908
C         -2.00403        3.22298       -1.89475
C         -2.18173        2.10333       -1.10635
C          2.10217       -1.75735       -1.89886
C          1.92942       -2.52326       -3.03466
C          0.95591       -2.17973       -3.94897
C          0.14263       -1.07655       -3.74819
C          0.32578       -0.29030       -2.59289
Cl         1.30459        1.17773        2.90632
Cl        -1.34725       -0.67734        3.14545
H         -2.58885        4.11020       -1.71509
H         -2.90137        2.11924       -0.30445
H          2.86358       -2.01515       -1.18182
H          2.54996       -3.38815       -3.20282
H         -0.90528        4.08040       -3.50631
H          0.81357       -2.77799       -4.83291
C         -0.87132       -4.59396       -1.58967
C         -0.35370       -4.17810       -0.37061
C         -0.63423       -2.88759        0.06053
C         -1.39439       -2.04086       -0.71334
C         -1.92851       -2.47043       -1.90495
C         -1.66439       -3.75355       -2.34655
H         -0.64952       -5.58721       -1.94108
C          0.51957       -5.07227        0.43687
H         -0.28023       -2.55367        1.02080
H         -2.53009       -1.79435       -2.49138
H         -2.06584       -4.09191       -3.28766
C         -5.79315       -0.03312        1.79489
C         -5.55937       -0.98688        0.82409
C         -4.30872       -1.08818        0.24405
C         -3.30179       -0.23877        0.63985
C         -3.53402        0.71386        1.60514
C         -4.78631        0.83446        2.19498
H         -6.76357        0.04139        2.25536
H         -6.34921       -1.65467        0.52134
H         -4.11078       -1.83116       -0.51122
H         -2.73162        1.35959        1.92195
C         -5.01866        1.83966        3.26743
C          4.91835       -1.45626        2.29639
C          5.04206       -0.17648        1.79241
C          4.02432        0.36658        1.03130
C          2.89470       -0.37420        0.77523
C          2.76809       -1.64766        1.28036
C          3.77660       -2.20753        2.05395
H          5.71080       -1.88151        2.88835
H          5.92926        0.40071        1.99531
H          4.10250        1.36854        0.64255
H          1.87920       -2.21739        1.07116
C          3.63577       -3.59188        2.58178
C          2.39060        4.64054       -1.33294
C          3.12781        3.62058       -1.90211
C          2.87789        2.30794       -1.54687
C          1.90194        2.03104       -0.61864
C          1.17201        3.04440       -0.04272
C          1.39701        4.36730       -0.40277
H          2.58199        5.66328       -1.60969
H          3.89254        3.84584       -2.62725
H          3.43010        1.49660       -1.99484
H          0.41538        2.80950        0.68672
C          0.60701        5.46235        0.22226
Pd        -0.06878        0.11454        1.48464
C          0.73550        2.11840       -4.21188
C         -0.90822       -0.75265       -4.75246
H          0.27325        2.04011       -5.19658
H          1.29520        3.05418       -4.17759
H          1.45411        1.30465       -4.10942
H         -1.61744       -0.01913       -4.36739
H         -0.46433       -0.34733       -5.66256
H         -1.47383       -1.64500       -5.02450
H          1.56512       -4.95344        0.14879
H          0.43584       -4.84687        1.50102
H          0.24791       -6.11953        0.29749
H         -4.46614        2.75914        3.06851
H         -6.07559        2.09795        3.34621
H         -4.69214        1.45401        4.23420
H          3.83630       -4.32687        1.80094
H          4.32936       -3.77559        3.40341
H          2.62576       -3.76459        2.95649
H          1.06551        5.78485        1.15804
H          0.54088        6.32812       -0.43818
H         -0.41046        5.13467        0.44112
