111
-148.55568714
P         -2.27712       -2.13923       -1.31639
P          0.14373       -0.21258       -0.59396
C         -1.18669       -1.53238       -2.62546
C         -0.14882       -0.68164       -2.31230
C         -2.42107       -3.98197       -1.34979
C         -1.54876       -4.61866       -0.28896
C         -1.39545       -1.91852       -3.93379
H         -2.19953       -2.59796       -4.16610
C         -0.57008       -1.43511       -4.93410
H         -0.73317       -1.73327       -5.95690
C          0.46096       -0.57028       -4.62184
H          1.10288       -0.19153       -5.40012
C          0.67293       -0.19452       -3.30733
H          1.47667        0.47653       -3.05195
Pd        -1.44041       -1.34143        0.67840
Cl        -3.25154       -2.22935        1.65790
Cl        -0.46897       -0.49856        2.51444
C         -3.93133       -4.20747       -1.15649
C         -4.05665       -1.67208       -1.54543
H         -0.49697       -4.35777       -0.43022
H         -1.84000       -4.27896        0.70672
H         -1.63356       -5.70777       -0.30307
H         -4.13748       -4.30499       -0.08156
H         -4.23685       -5.16536       -1.60454
H         -4.36196       -1.20980       -0.59738
C         -4.76273       -3.02929       -1.73725
C         -4.24977       -0.71242       -2.70246
H         -2.11012       -4.29947       -2.35363
H         -4.92517       -3.19437       -2.81106
H         -5.76789       -3.00275       -1.29022
H         -5.28904       -0.38485       -2.78073
H         -3.62019        0.17321       -2.60056
H         -3.98521       -1.18635       -3.64866
C         -1.21809        4.04713        0.26666
C         -2.14391        3.08350       -0.21108
C         -1.67348        1.81407       -0.50744
C         -0.37180        1.46740       -0.25113
C          0.48511        2.35234        0.35010
C          0.08557        3.64256        0.65133
O         -1.57340        5.42116        0.31164
C         -3.63700        3.38926       -0.40666
H         -2.32428        1.06909       -0.93092
H          1.47833        2.01926        0.59064
C          1.06882        4.58550        1.36144
C          4.38902       -0.97256        0.88360
C          4.15900        0.02237       -0.10058
C          2.85873        0.23320       -0.52869
C          1.82661       -0.54705       -0.07383
C          2.06550       -1.58753        0.78554
C          3.34010       -1.84972        1.25871
O          5.65362       -1.06290        1.52371
C          5.28623        0.89214       -0.67981
H          2.63315        1.03322       -1.21180
H          1.23004       -2.18271        1.11032
C          3.55010       -3.03801        2.20959
C         -4.48760        2.15577       -0.02826
C         -4.10268        4.54149        0.50242
C         -3.89160        3.74530       -1.87874
C          0.32213        5.60702        2.23840
C          2.00610        3.78827        2.29714
C          1.91954        5.31524        0.31128
C         -1.31676        6.11415       -0.90308
H         -5.55037        2.39555       -0.04931
H         -4.33244        1.33038       -0.71874
H         -4.24104        1.80945        0.97512
H         -3.87481        4.32288        1.54514
H         -3.61136        5.47573        0.24316
H         -5.17731        4.69990        0.41551
H         -3.60231        2.92185       -2.53117
H         -4.94582        3.95943       -2.05245
H         -3.31591        4.62014       -2.17465
H          1.02087        6.23114        2.79488
H         -0.29964        6.26547        1.63656
H         -0.32360        5.09875        2.95371
H          2.68620        3.14730        1.73901
H          2.61979        4.46110        2.89563
H          1.43060        3.16320        2.97943
H          2.64438        5.97591        0.78624
H          2.46566        4.60234       -0.30614
H          1.29734        5.91711       -0.34757
H         -0.79837        5.46376       -1.60877
H         -2.25619        6.44728       -1.34359
H         -0.70164        6.99050       -0.69836
C          5.77205       -0.24849        2.68367
C          6.62066        0.12489       -0.71074
C          4.96719        1.29572       -2.13747
C          5.42900        2.16964        0.16148
C          3.32500       -2.57211        3.65615
C          2.54701       -4.17193        1.89576
C          4.96172       -3.63204        2.05507
H          6.95861       -0.12503        0.29172
H          6.51563       -0.80474       -1.26906
H          7.40310        0.71807       -1.18340
H          5.81811        1.80094       -2.59390
H          4.73599        0.41808       -2.74061
H          4.12291        1.98139       -2.19133
H          6.22981        2.80176       -0.22135
H          4.50609        2.74817        0.14205
H          5.65179        1.93606        1.19988
H          2.31844       -2.17278        3.77899
H          3.44927       -3.39750        4.35656
H          4.02693       -1.78861        3.93146
H          2.77748       -5.06400        2.47769
H          1.52515       -3.88679        2.14160
H          2.58439       -4.44177        0.84066
H          5.72760       -2.91427        2.33793
H          5.14370       -3.92469        1.02154
H          5.08735       -4.51268        2.68447
H          6.58651        0.46330        2.55019
H          4.84229        0.29234        2.86515
H          6.00335       -0.87286        3.54653
