105
-153.07011833
Cl        -0.98598        2.16469       -2.82923
Pd         0.03869        1.54366       -0.91478
P          1.38623        0.75780        0.81232
N          0.56501       -0.41442        1.82748
C          0.01552       -1.67203        1.62334
C         -0.10794       -2.29249        0.35541
C         -0.79036       -3.52248        0.24963
C         -0.92803       -4.16014       -1.11225
C         -1.98545       -5.27273       -1.18138
C         -1.85560       -6.22470        0.01114
C         -2.02886       -5.46733        1.33667
C         -1.29675       -4.14938        1.39024
C         -1.12736       -3.54239        2.62716
C         -0.49093       -2.33421        2.74148
H         -0.39651       -1.86620        3.70599
H         -1.52377       -4.02607        3.50391
H         -3.09383       -5.28090        1.51879
H         -2.57971       -7.04806       -0.06710
H         -2.98643       -4.82335       -1.17870
H         -1.16404       -3.37869       -1.84483
C          0.62537       -1.79821       -0.83568
C         -0.07163       -1.16350       -1.90070
C          0.61833       -0.91233       -3.09050
C          1.93314       -1.27206       -3.23459
C          2.61628       -1.92648       -2.21696
C          4.03199       -2.37512       -2.46508
C          4.41082       -3.60826       -1.63314
C          4.09827       -3.36759       -0.15328
C          2.61321       -3.02914        0.07038
C          1.96242       -2.19892       -1.01426
H          2.04303       -3.96011        0.17276
H          4.71937       -2.54177        0.20984
H          5.46947       -3.86865       -1.77456
H          4.71101       -1.54676       -2.23417
H          2.44838       -1.05967       -4.15594
H          0.10604       -0.40439       -3.88856
N         -1.40945       -0.76236       -1.79207
P         -1.87849        0.21653       -0.39750
C         -2.82889       -0.75952        0.76596
C         -3.51205       -1.84860        0.28206
C         -4.29878       -2.60102        1.13523
C         -4.41201       -2.25538        2.47503
C         -3.72360       -1.14213        2.94016
C         -2.94128       -0.38814        2.08424
H         -2.41423        0.48211        2.43924
H         -3.80052       -0.87190        3.97945
C         -5.21744       -3.09228        3.40636
H         -4.82404       -3.46490        0.76550
H         -3.41524       -2.10893       -0.76006
C         -3.00007        1.53733       -0.87074
C         -2.92725        2.74574       -0.21854
C         -3.79229        3.76613       -0.56920
C         -4.74254        3.57621       -1.56357
C         -4.80130        2.34640       -2.20575
C         -3.93483        1.32678       -1.85506
H         -3.98530        0.36773       -2.34495
H         -5.52785        2.19322       -2.98532
C         -5.65294        4.68485       -1.96293
H         -3.73102        4.71991       -0.07356
H         -2.19087        2.88906        0.55680
H         -1.77663       -0.27027       -2.59661
H          0.74028       -0.14027        2.78647
C          1.33669        2.30195        1.72898
C          0.18304        2.62020        2.40558
C          0.09070        3.82424        3.07996
C          1.15650        4.71416        3.08205
C          2.30770        4.37985        2.38072
C          2.39687        3.17638        1.70559
H          3.28399        2.92019        1.14956
H          3.13192        5.07217        2.36015
C          1.04813        6.02326        3.78349
H         -0.81296        4.08157        3.60567
H         -0.64241        1.92706        2.39624
C          3.12072        0.30782        0.70717
C          3.88498        0.62903       -0.38868
C          5.23452        0.33329       -0.40176
C          5.83235       -0.28364        0.68830
C          5.05218       -0.57726        1.79868
C          3.69997       -0.28300        1.80548
H          3.09237       -0.50658        2.66778
H          5.50892       -1.03940        2.65707
C          7.28919       -0.59053        0.67983
H          5.83575        0.59052       -1.25706
H          3.42774        1.14013       -1.21796
Cl         1.87827        2.60661       -1.66506
H         -1.69462       -6.09102        2.17570
H         -1.91257       -5.82356       -2.12978
H         -0.86652       -6.69950       -0.01068
H          0.04849       -4.55779       -1.41257
H          4.39269       -4.23751        0.45041
H          2.48575       -2.50980        1.02774
H          4.16741       -2.57791       -3.53511
H          3.84116       -4.47605       -1.98885
H         -5.63375       -2.49141        4.21609
H         -6.04941       -3.57008        2.88713
H         -4.60290       -3.87665        3.85045
H         -5.19965        5.29378       -2.74624
H         -6.60063        4.29963       -2.34179
H         -5.87533        5.33601       -1.11640
H          2.02720        6.37962        4.10674
H          0.61471        6.77907        3.12713
H          0.41620        5.94388        4.66921
H          7.51498       -1.44799        1.31541
H          7.63500       -0.82624       -0.32769
H          7.86651        0.26030        1.04405
