105
-153.06941003
Cl        -1.06588        2.34859       -2.67957
Pd         0.10546        1.39826       -1.00238
P          1.41380        0.75098        0.80148
N          0.55558       -0.41629        1.79413
C          0.01144       -1.67796        1.59072
C         -0.11498       -2.30150        0.32425
C         -0.79442       -3.53241        0.22024
C         -0.92554       -4.17112       -1.14310
C         -1.40111       -5.63244       -1.12261
C         -2.53909       -5.82768       -0.11652
C         -2.08153       -5.44563        1.29915
C         -1.32531       -4.14266        1.35821
C         -1.14980       -3.53740        2.59513
C         -0.49849       -2.33702        2.70940
H         -0.40126       -1.86910        3.67369
H         -1.55200       -4.01641        3.47179
H         -2.94505       -5.38493        1.97404
H         -3.39066       -5.19968       -0.40679
H         -1.71016       -5.95653       -2.12641
H         -1.61825       -3.56658       -1.74030
C          0.58796       -1.79792       -0.87984
C         -0.14988       -1.21101       -1.94855
C          0.50942       -0.97768       -3.16090
C          1.83732       -1.28417       -3.31205
C          2.56466       -1.87095       -2.28322
C          4.00125       -2.24652       -2.53121
C          4.44627       -3.44857       -1.68642
C          4.13009       -3.20587       -0.20750
C          2.63210       -2.93555        0.02149
C          1.93828       -2.14578       -1.06641
H          2.10598       -3.89114        0.13364
H          4.71218       -2.34697        0.14267
H          5.51592       -3.65702       -1.83110
H          4.63515       -1.38016       -2.31035
H          2.33087       -1.07659       -4.24624
H         -0.03464       -0.51609       -3.96608
N         -1.48549       -0.80605       -1.80745
P         -1.87904        0.19071       -0.39929
C         -2.82855       -0.76046        0.78818
C         -3.53240       -1.84854        0.33232
C         -4.31887       -2.57478        1.20824
C         -4.41238       -2.20348        2.54264
C         -3.70479       -1.09090        2.97914
C         -2.92276       -0.36344        2.10045
H         -2.38333        0.50784        2.43305
H         -3.76689       -0.80009        4.01386
C         -5.21808       -3.01175        3.49874
H         -4.85993       -3.43822        0.86113
H         -3.45421       -2.12733       -0.70634
C         -2.97503        1.55065       -0.80965
C         -3.95461        1.39363       -1.75981
C         -4.80097        2.44862       -2.04969
C         -4.67695        3.65918       -1.38052
C         -3.68223        3.79418       -0.42112
C         -2.83707        2.73864       -0.13098
H         -2.06359        2.83933        0.61454
H         -3.56989        4.73279        0.09409
C         -5.56559        4.80571       -1.71684
H         -5.56267        2.33845       -2.80253
H         -4.05533        0.44911       -2.26967
H         -1.87969       -0.32439       -2.60592
H          0.72243       -0.14325        2.75468
C          1.30752        2.31959        1.66629
C          0.17513        2.59461        2.39531
C          0.03960        3.82089        3.02033
C          1.04137        4.77714        2.91964
C          2.17084        4.48524        2.16596
C          2.30251        3.25931        1.53960
H          3.17026        3.03559        0.94035
H          2.94352        5.22817        2.06528
C          0.88527        6.10899        3.56715
H         -0.84830        4.04386        3.58699
H         -0.60064        1.85021        2.46564
C          3.15596        0.31102        0.80273
C          3.67706       -0.25414        1.94311
C          5.02910       -0.54009        2.01755
C          5.87164       -0.24991        0.95279
C          5.32824        0.32112       -0.18954
C          3.97815        0.60569       -0.25808
H          3.56224        1.08038       -1.12945
H          5.97132        0.54707       -1.02295
C          7.32014       -0.58890        1.01429
H          5.43732       -0.99312        2.90477
H          3.02404       -0.46794        2.77393
Cl         1.97754        2.29548       -1.87506
H         -1.44393       -6.23821        1.70859
H         -0.56152       -6.28400       -0.84955
H         -2.91187       -6.86145       -0.14333
H          0.03952       -4.10133       -1.66047
H          4.46906       -4.05343        0.40456
H          2.48519       -2.41519        0.97543
H          4.14537       -2.45330       -3.59930
H          3.91919       -4.34827       -2.02818
H         -5.63624       -2.38593        4.28838
H         -6.04872       -3.50702        2.99395
H         -4.60317       -3.78078        3.96839
H         -5.72250        5.44983       -0.85050
H         -5.12990        5.41157       -2.51243
H         -6.54396        4.46035       -2.05383
H          1.85396        6.53139        3.83784
H          0.38840        6.80995        2.89506
H          0.28990        6.03651        4.47840
H          7.91530        0.12416        0.44211
H          7.68518       -0.57482        2.04218
H          7.50252       -1.58391        0.60583
