171
-217.84627772
P         -1.61333        0.37506       -0.46363
P          1.65590       -0.35842       -0.28190
C         -0.83280        1.38140       -1.72821
C          1.04624       -1.27619       -1.69942
C          0.04913        0.81861       -2.64356
C          0.71367        1.66503       -3.55164
C          0.44122        3.02276       -3.53605
C         -0.45960        3.55683       -2.63921
C         -1.08728        2.73109       -1.72712
C          1.30722       -2.62342       -1.75755
C          0.80217       -3.38467       -2.79346
C          0.01503       -2.78987       -3.75658
C         -0.26169       -1.43358       -3.71494
C          0.28106       -0.65133       -2.67757
Cl         1.39133        0.38439        2.89489
Cl        -1.70763       -0.51255        2.71610
C         -1.11180       -0.82688       -4.77614
C          1.68910        1.12515       -4.53856
H         -0.66887        4.61405       -2.64522
H         -1.77945        3.14083       -1.00901
H          1.90821       -3.08208       -0.98879
H          1.01732       -4.43951       -2.84437
H          0.94523        3.66427       -4.23918
H         -0.39469       -3.38173       -4.55769
C         -3.68431       -3.38253       -1.88706
C         -2.75796       -3.47460       -0.85512
C         -2.10855       -2.31136       -0.46573
C         -2.39371       -1.11458       -1.07438
C         -3.31621       -1.03763       -2.08813
C         -3.98277       -2.17979       -2.51681
H         -4.20336       -4.26685       -2.20499
H         -1.38154       -2.33414        0.32747
H         -3.51616       -0.07704       -2.53163
C         -4.54668        2.75626        2.04396
C         -3.18918        3.03408        2.15634
C         -2.31219        2.31684        1.35430
C         -2.77807        1.34884        0.49978
C         -4.12083        1.08041        0.40811
C         -5.03683        1.78794        1.17591
H         -5.24636        3.29577        2.65413
H         -1.25200        2.49624        1.41736
H         -4.44673        0.30130       -0.25741
C          4.27637       -2.89564        2.41266
C          2.92193       -3.19505        2.32041
C          2.14524       -2.42730        1.46368
C          2.70172       -1.39401        0.75163
C          4.03902       -1.10594        0.86137
C          4.85830       -1.85956        1.69202
H          4.89895       -3.47213        3.07066
H          1.08979       -2.62135        1.37089
H          4.43489       -0.27529        0.30509
C          3.86218        3.48387       -1.17795
C          2.81499        3.50674       -0.26453
C          2.12922        2.32113       -0.03963
C          2.49457        1.16860       -0.68927
C          3.53620        1.15932       -1.58350
C          4.24374        2.32665       -1.84683
H          4.41106        4.38676       -1.36779
H          1.31051        2.29018        0.65822
H          3.79605        0.23080       -2.06280
Pd        -0.07754       -0.06062        1.23975
C         -2.40660       -4.60555        1.36852
C         -2.41955       -4.80205       -0.16130
C         -1.03300       -5.26753       -0.63309
C         -3.45236       -5.89594       -0.49517
H         -2.22449       -5.55010        1.88081
H         -1.62758       -3.91098        1.67876
H         -3.36254       -4.21288        1.71413
H         -0.74148       -6.19592       -0.14234
H         -1.03140       -5.43827       -1.70931
H         -0.27705       -4.51491       -0.41371
H         -3.43998       -6.14105       -1.55682
H         -3.23505       -6.81275        0.05281
H         -4.45896       -5.57697       -0.22511
C         -5.17651       -0.73662       -4.24053
C         -5.06624       -2.13599       -3.60391
C         -6.42355       -2.49258       -2.97071
C         -4.73146       -3.15108       -4.71338
H         -5.46497        0.01021       -3.50113
H         -4.23060       -0.43250       -4.68747
H         -5.93159       -0.72789       -5.02647
H         -7.22138       -2.46031       -3.71248
H         -6.40676       -3.49321       -2.54004
H         -6.67344       -1.79109       -2.17514
H         -3.75500       -2.94244       -5.14845
H         -4.71486       -4.17023       -4.32959
H         -5.47118       -3.11131       -5.51280
C         -1.66991        3.33103        4.12414
C         -2.62484        4.05447        3.15465
C         -3.74056        4.72743        3.97626
C         -1.85485        5.14460        2.38864
H         -2.19164        2.53493        4.65466
H         -0.83151        2.88068        3.59413
H         -1.26451        4.02218        4.86266
H         -4.30159        3.99154        4.55196
H         -3.32190        5.44676        4.68003
H         -4.43445        5.26429        3.32967
H         -1.01795        4.71836        1.83902
H         -2.50531        5.64695        1.67292
H         -1.45680        5.89556        3.07084
C         -7.03191        1.02430        2.48569
C         -6.54466        1.50706        1.10752
C         -6.87291        0.41970        0.06452
C         -7.28731        2.79732        0.71443
H         -8.09736        0.79585        2.46526
H         -6.49834        0.12315        2.78736
H         -6.86744        1.78179        3.25112
H         -6.39139       -0.52491        0.31701
H         -7.94674        0.23908        0.01820
H         -6.54555        0.71991       -0.93075
H         -7.13271        3.58461        1.45124
H         -6.93425        3.16586       -0.24857
H         -8.36001        2.62126        0.63583
C          1.16538       -3.65691        4.04350
C          2.25027       -4.29497        3.15424
C          3.26129       -5.02325        4.05989
C          1.60490       -5.32655        2.21195
H          0.39604       -3.17091        3.44468
H          0.67856       -4.40719        4.66604
H          1.60029       -2.90250        4.69860
H          4.04313       -5.50112        3.46984
H          3.72914       -4.33179        4.76041
H          2.76750       -5.79988        4.64385
H          0.83795       -4.86481        1.59316
H          2.35108       -5.76523        1.54977
H          1.13607       -6.13261        2.77610
C          6.63901       -1.16737        3.31286
C          6.35495       -1.55639        1.85075
C          6.79832       -0.39342        0.94030
C          7.17245       -2.80601        1.47529
H          6.38790       -1.97950        3.99414
H          7.69206       -0.92529        3.45517
H          6.04980       -0.29652        3.59965
H          6.26740        0.52519        1.18963
H          7.86451       -0.19773        1.05355
H          6.61487       -0.62539       -0.10870
H          6.96198       -3.10922        0.44982
H          8.24171       -2.61144        1.55706
H          6.93659       -3.64577        2.12780
C          1.06530        5.28415       -0.12882
C          2.38729        4.78329        0.47389
C          3.44623        5.89535        0.34456
C          2.19126        4.48000        1.97347
H          0.29325        4.51938       -0.05754
H          0.71015        6.17576        0.38755
H          1.19354        5.53142       -1.18228
H          3.15848        6.77225        0.92447
H          4.41462        5.55601        0.71199
H          3.56114        6.21381       -0.69116
H          1.94075        5.38628        2.52453
H          1.38667        3.76515        2.13809
H          3.10175        4.06393        2.40398
C          5.65431        1.00131       -3.49993
C          5.45366        2.35550       -2.79172
C          6.71920        2.67042       -1.97331
C          5.24940        3.44154       -3.86507
H          5.85473        0.20738       -2.78076
H          4.77410        0.72708       -4.08046
H          6.50143        1.04477       -4.18433
H          6.64090        3.64070       -1.48402
H          6.87473        1.91845       -1.20013
H          7.60286        2.68707       -2.61099
H          4.33661        3.26087       -4.43114
H          5.17521        4.43286       -3.42005
H          6.08304        3.45613       -4.56699
H         -1.95095       -1.47837       -5.02088
H          2.06219        0.14588       -4.23561
H         -0.53823       -0.66396       -5.68952
H         -1.52212        0.13260       -4.45837
H          2.54876        1.78825       -4.63738
H          1.23131        1.02315       -5.52334
