58
-89.86794306
P          1.61398        0.30694        0.86879
C          3.03611        1.37282        0.60855
C          4.16099        0.87880       -0.01174
C          5.25005        1.70486       -0.22291
C          5.20275        3.02256        0.18728
C          4.07070        3.51529        0.80589
C          2.98324        2.68604        1.01623
H          2.08723        3.06188        1.48434
H          4.18135       -0.15008       -0.33223
C          1.96746       -1.36299        0.29855
C          2.27662       -2.37057        1.18364
C          2.52408       -3.64724        0.71246
C          2.47198       -3.90460       -0.64310
C          2.18252       -2.88702       -1.52979
C          1.93271       -1.61238       -1.05526
H          1.71283       -0.80521       -1.73605
H          2.34065       -2.15722        2.23795
C          1.19115        0.36388        2.65597
C          0.06514       -0.56967        3.06533
C         -1.31245       -0.10668        2.62679
P         -1.62952       -0.24729        0.82277
C         -3.28874        0.37189        0.52709
C         -4.27518       -0.47972        0.08516
C         -5.54850        0.00655       -0.15009
C         -5.82291        1.34389        0.05827
C         -4.82904        2.19484        0.50031
C         -3.55642        1.70535        0.73553
H         -2.76686        2.35957        1.07063
H         -4.04359       -1.51961       -0.07930
C         -1.45833       -1.92823        0.20556
C         -1.43840       -2.10751       -1.15904
C         -1.29049       -3.37549       -1.68930
C         -1.16753       -4.46019       -0.84429
C         -1.20358       -4.27951        0.52437
C         -1.35477       -3.00946        1.05083
H         -1.40799       -2.86479        2.11700
H         -1.54320       -1.24658       -1.80040
Pd        -0.13445        0.90295       -0.53714
Cl         1.25583        2.28315       -1.62447
Cl        -1.84937        1.16060       -1.96690
H         -2.10127       -0.68584        3.11318
H         -1.47380        0.93678        2.90353
H          0.25848       -1.57241        2.66654
H          0.07383       -0.68795        4.16022
H          2.11701        0.12593        3.18563
H          0.94434        1.39754        2.90424
H          6.13141        1.32100       -0.70985
H          4.03086        4.54548        1.11951
H          2.75826       -4.44012        1.40369
H          2.14616       -3.08475       -2.58843
H         -6.32285       -0.65678       -0.49885
H         -5.04170        3.23951        0.65738
H         -1.26760       -3.51425       -2.75761
H         -1.11409       -5.12773        1.18302
H          6.04919        3.66869        0.02060
H          2.66109       -4.90028       -1.00983
H         -6.81380        1.72501       -0.12771
H         -1.04624       -5.44987       -1.25351
