171
-217.84628190
P         -1.56450        0.37742       -0.37202
P          1.62290       -0.36405       -0.22470
C         -0.78487        1.38843       -1.63538
C          0.99317       -1.29911       -1.62309
C          0.04824        0.80720       -2.58452
C          0.70617        1.64120       -3.50897
C          0.48314        3.00761       -3.46684
C         -0.36406        3.56154       -2.53048
C         -0.99269        2.74581       -1.61075
C          1.21224       -2.65457       -1.65622
C          0.68582       -3.41845       -2.67891
C         -0.07361       -2.81537       -3.65920
C         -0.30619       -1.44999       -3.64465
C          0.25172       -0.66741       -2.61517
Cl         1.39617        0.23867        3.04086
Cl        -1.74721       -0.37070        2.82179
C         -1.13856       -0.83983       -4.71765
C          1.62689        1.08067       -4.53588
H         -0.53417        4.62558       -2.51391
H         -1.65182        3.17058       -0.87151
H          1.79862       -3.11854       -0.88004
H          0.86424       -4.48092       -2.70649
H          0.98537        3.64051       -4.17900
H         -0.49937       -3.40845       -4.45101
C         -3.71798       -3.25938       -1.97285
C         -2.76248       -3.43383       -0.97985
C         -2.10107       -2.30610       -0.51062
C         -2.37318       -1.07140       -1.04432
C         -3.30547       -0.91742       -2.04103
C         -4.00666       -2.01672       -2.52268
H         -4.27117       -4.11557       -2.31199
H         -1.37674       -2.37827        0.28182
H         -3.49232        0.07182       -2.42337
C         -4.59968        2.71190        2.07160
C         -3.25854        3.06880        2.15817
C         -2.34678        2.37062        1.37660
C         -2.76168        1.34258        0.56723
C         -4.08744        0.99273        0.51004
C         -5.03726        1.67397        1.25747
H         -5.31932        3.24967        2.65798
H         -1.29908        2.61566        1.41343
H         -4.38638        0.16916       -0.11404
C          4.35398       -2.84388        2.42036
C          3.01288       -3.19761        2.32992
C          2.20106       -2.45260        1.48494
C          2.70870       -1.38300        0.78987
C          4.03248       -1.03828        0.90494
C          4.88762       -1.77111        1.71740
H          5.00453       -3.40737        3.06218
H          1.15714       -2.69565        1.38193
H          4.39124       -0.18070        0.36483
C          3.87081        3.40192       -1.31806
C          2.83186        3.48462       -0.40014
C          2.14681        2.31692       -0.08914
C          2.48029        1.13400       -0.69983
C          3.50067        1.07044       -1.61706
C          4.22494        2.21201       -1.94124
H          4.43607        4.28860       -1.53837
H          1.35652        2.31567        0.64124
H          3.73456        0.11848       -2.06269
Pd        -0.06407       -0.07117        1.36252
C         -1.30342       -4.82280        0.56603
C         -2.50274       -4.83051       -0.40049
C         -2.19460       -5.81606       -1.54368
C         -3.75266       -5.29674        0.36604
H         -1.49860       -4.18886        1.43050
H         -1.09647       -5.82700        0.93563
H         -0.40722       -4.45932        0.06438
H         -1.33958       -5.47442       -2.12579
H         -1.96199       -6.80621       -1.15215
H         -3.04095       -5.91909       -2.22136
H         -4.61928       -5.35256       -0.29201
H         -3.59800       -6.28334        0.80247
H         -3.98965       -4.60311        1.17264
C         -6.47474       -2.18308       -2.88073
C         -5.12794       -1.88113       -3.56265
C         -4.89889       -2.87788       -4.71521
C         -5.18380       -0.45909       -4.15474
H         -6.49426       -3.19691       -2.48203
H         -6.65050       -1.49646       -2.05298
H         -7.30077       -2.08298       -3.58459
H         -3.93129       -2.71147       -5.18661
H         -4.92685       -3.90838       -4.36396
H         -5.66772       -2.77006       -5.48016
H         -5.41196        0.27929       -3.38660
H         -4.23612       -0.19049       -4.62049
H         -5.95969       -0.38786       -4.91687
C         -2.35765        5.40069        2.19012
C         -2.76435        4.20390        3.06624
C         -1.55187        3.71908        3.88688
C         -3.85648        4.66036        4.05339
H         -1.58833        5.11678        1.47427
H         -3.21253        5.77343        1.62617
H         -1.96966        6.21795        2.79782
H         -1.21716        4.48977        4.58084
H         -1.80958        2.83202        4.46506
H         -0.70832        3.46546        3.24738
H         -4.70898        5.09139        3.52918
H         -4.20803        3.82520        4.65901
H         -3.47119        5.42292        4.73018
C         -6.99224        1.42870       -0.29011
C         -6.50878        1.24724        1.16060
C         -7.40943        2.08568        2.08740
C         -6.63434       -0.23392        1.56609
H         -8.03691        1.13594       -0.39361
H         -6.90015        2.46964       -0.59937
H         -6.40591        0.82312       -0.97990
H         -7.10732        1.97854        3.12905
H         -7.37087        3.14201        1.82206
H         -8.44824        1.76482        2.01045
H         -7.67336       -0.56109        1.53280
H         -6.06182       -0.87853        0.90009
H         -6.26333       -0.38751        2.57918
C          2.09498       -5.51453        2.13190
C          2.41324       -4.37386        3.11310
C          1.12153       -3.91753        3.82151
C          3.38734       -4.89896        4.18566
H          3.00264       -5.86504        1.64090
H          1.63979       -6.35999        2.64743
H          1.40726       -5.18131        1.35664
H          1.32051       -3.06588        4.47166
H          0.35529       -3.61913        3.10803
H          0.70713       -4.71965        4.43181
H          4.29123       -5.30638        3.73359
H          3.67257       -4.10470        4.87534
H          2.92675       -5.69633        4.76882
C          7.23928       -2.62457        1.50468
C          6.37088       -1.40799        1.87544
C          6.63738       -1.00277        3.33618
C          6.76739       -0.23279        0.95963
H          8.29959       -2.38448        1.58190
H          7.04187       -3.46985        2.16271
H          7.03894       -2.94229        0.48157
H          6.41475       -1.82129        4.01978
H          7.68040       -0.72112        3.47956
H          6.01545       -0.15345        3.61842
H          7.82649        0.00135        1.06630
H          6.58626       -0.47614       -0.08716
H          6.20546        0.66730        1.20854
C          1.23313        4.72278        1.13388
C          2.50556        4.82437        0.27236
C          2.27497        5.90179       -0.80408
C          3.68244        5.23365        1.17500
H          0.38691        4.39495        0.53117
H          1.36909        4.01837        1.95401
H          0.98045        5.68931        1.56954
H          1.47269        5.60553       -1.47869
H          1.99916        6.85331       -0.34981
H          3.17038        6.06767       -1.40150
H          3.47791        6.17776        1.67957
H          3.86431        4.47537        1.93645
H          4.59827        5.35313        0.59698
C          5.24071        3.23591       -4.00407
C          5.42604        2.18025       -2.89724
C          5.58604        0.79881       -3.56143
C          6.70632        2.49197       -2.10088
H          5.19418        4.24260       -3.59096
H          6.06978        3.20728       -4.71096
H          4.32048        3.06056       -4.55918
H          5.77605        0.02478       -2.81816
H          4.69245        0.52667       -4.12221
H          6.42574        0.79877       -4.25627
H          7.58404        2.46676       -2.74645
H          6.65501        3.47950       -1.64351
H          6.85202        1.76306       -1.30445
H         -0.57661       -0.75951       -5.64916
H          1.97650        0.08557       -4.25760
H         -1.47974        0.15841       -4.44024
H         -2.02307       -1.44646       -4.91250
H          2.50480        1.71494       -4.65764
H          1.13155        1.00728       -5.50496
