59
-75.80720694
Cl         1.72430        0.56524        2.30351
P          1.62979       -0.03881       -0.88063
P         -1.55973       -0.10028       -0.74786
C          0.61960       -0.00565       -2.42729
H          0.40195        1.03553       -2.67466
H          1.21965       -0.41289       -3.24686
C         -0.65576       -0.77067       -2.21626
H         -0.44818       -1.82764       -2.03900
H         -1.31865       -0.71509       -3.08515
C          2.82086       -1.46474       -0.87470
H          2.78374       -1.89958       -1.88083
C          2.83920        1.36528       -0.76011
H          2.81104        1.69438        0.28597
C         -3.06577       -1.12379       -0.38922
H         -3.42965       -0.78825        0.58973
C         -2.49536        1.41776       -1.26510
H         -1.87195        1.98768       -1.96424
C          4.18507       -0.79503       -0.62672
H          4.41673       -0.85579        0.44562
H          4.98569       -1.35565       -1.13261
C          4.18652        0.69152       -1.06585
H          4.37847        0.75637       -2.14584
H          5.00880        1.24380       -0.58560
C         -4.02865       -0.65660       -1.49638
H         -3.94119       -1.34961       -2.34583
H         -5.07139       -0.75111       -1.15633
C         -3.72980        0.80518       -1.96795
H         -4.60421        1.44597       -1.78373
H         -3.58772        0.82483       -3.05923
C          2.47629       -2.52263        0.16919
H          2.33919       -2.02854        1.14017
H          3.34125       -3.18724        0.30328
C          2.51590        2.53832       -1.67804
H          3.37642        3.22135       -1.70378
H          2.41393        2.16830       -2.70631
C         -2.81530       -2.62914       -0.35054
H         -3.77093       -3.15454       -0.48601
H         -2.20758       -2.91549       -1.21748
C         -2.88069        2.28193       -0.06300
H         -3.69032        2.96395       -0.35863
H         -3.32031        1.63238        0.70524
C          1.24990       -3.34304       -0.18923
H          1.01875       -4.09161        0.57207
H          1.38666       -3.86767       -1.13676
H          0.37389       -2.70617       -0.29958
C          1.26929        3.29416       -1.25183
H          0.40404        2.63271       -1.21357
H          1.02965        4.11317       -1.93383
H          1.38908        3.72003       -0.25371
C         -2.16135       -3.08549        0.94528
H         -1.92541       -4.15197        0.93534
H         -2.81380       -2.90127        1.80094
H         -1.23650       -2.54233        1.13893
C         -1.73467        3.08878        0.52593
H         -1.33421        3.79499       -0.20326
H         -2.04937        3.66696        1.39770
H         -0.91431        2.44752        0.84655
Cl        -1.50604       -0.06426        2.41980
Pd         0.10767       -0.00289        0.86098
