58
-89.86737379
P          1.56280        0.02105        0.77835
C          2.92080        1.19581        0.74468
C          2.68065        2.54327        0.88659
C          3.73727        3.43573        0.86217
C          5.02745        2.97135        0.69857
C          5.26404        1.61815        0.55824
C          4.20512        0.72823        0.58196
H          4.37279       -0.33117        0.47007
H          1.66784        2.89571        0.99731
C          2.03507       -1.51039       -0.03706
C          2.16571       -1.49158       -1.40700
C          2.51160       -2.64598       -2.08425
C          2.73126       -3.81305       -1.37992
C          2.61231       -3.82532       -0.00397
C          2.26525       -2.66855        0.67025
H          2.17318       -2.66822        1.74380
H          1.99655       -0.56625       -1.93529
C          1.07297       -0.22811        2.53574
C          0.06224        0.82148        2.97832
C         -1.38249        0.45477        2.67540
P         -1.71492        0.01759        0.91403
C         -3.40405        0.47874        0.51946
C         -3.76626        1.80528        0.56570
C         -5.06365        2.17417        0.25698
C         -5.98795        1.21025       -0.09480
C         -5.61922       -0.11986       -0.13981
C         -4.32127       -0.48533        0.16831
H         -4.01759       -1.51899        0.13311
H         -3.02960        2.54768        0.83029
C         -1.42927       -1.72392        0.53985
C         -1.20677       -2.66347        1.52040
C         -0.94815       -3.97564        1.16934
C         -0.91788       -4.34199       -0.16147
C         -1.15405       -3.40078       -1.14273
C         -1.41342       -2.09025       -0.78730
H         -1.59891       -1.34042       -1.54071
H         -1.24482       -2.37882        2.55820
Pd        -0.13075        0.81460       -0.59402
Cl         1.39585        1.80358       -1.90910
Cl        -1.84811        1.37408       -1.92697
H         -1.70554       -0.39326        3.28099
H         -2.05341        1.28029        2.92570
H          0.16694        1.01273        4.05793
H          0.30849        1.77648        2.49420
H          0.67476       -1.23409        2.66495
H          1.99822       -0.17480        3.11528
H          3.55195        4.49225        0.96557
H          6.27033        1.25530        0.42798
H          2.60823       -2.63327       -3.15737
H          2.78594       -4.73635        0.54482
H         -5.34967        3.21271        0.28634
H         -6.33945       -0.87186       -0.41736
H         -0.76732       -4.71185        1.93530
H         -1.13017       -3.68324       -2.18232
H          5.85082        3.66657        0.67732
H          2.99843       -4.71571       -1.90480
H         -6.99811        1.49699       -0.33784
H         -0.70923       -5.36356       -0.43446
