72
-98.10329355
Fe         0.00554        2.83825        0.01633
P          1.83302       -0.01750       -0.05929
P         -1.83705       -0.02425        0.05703
C          1.40165        1.59343        0.70460
C          0.38868        1.80199        1.72341
C          0.32712        3.22297        2.01509
C          1.32183        3.89206        1.19622
C          2.00065        2.88405        0.39910
C         -1.43066        1.59171       -0.70541
C         -2.02409        2.87848       -0.37891
C         -1.35623        3.89622       -1.17120
C         -0.36742        3.23997       -2.00512
C         -0.41767        1.81814       -1.71914
C          3.18536       -0.77585        0.96495
C          4.38554        0.08683        0.53963
C          2.88824        0.31931       -1.55691
C          4.30952        0.48347       -0.96389
C         -3.16689       -0.81580       -0.97123
C         -4.38614        0.02744       -0.56084
C         -2.90923        0.29120        1.54596
C         -4.32492        0.44599        0.93797
H         -0.22080        1.02282        2.17809
H         -0.33715        3.70051        2.73899
H          1.53899        4.96266        1.19677
H          2.80541        3.06285       -0.31690
H         -2.82148        3.04871        0.34682
H          0.19554        1.04664       -2.18124
Cl         1.57208       -3.02557       -0.46031
Cl        -1.49544       -3.09209        0.48465
Pd        -0.00550       -1.47844       -0.00956
H          3.32395       -1.80534        0.61471
C          2.90374       -0.76495        2.46884
H          2.53197        1.25673       -2.00041
C          2.82331       -0.80697       -2.58698
H          5.33124       -0.42976        0.76660
H          4.39184        0.99362        1.16228
H          4.67123        1.51236       -1.10758
H          5.00416       -0.14375       -1.53978
H         -1.57570        4.96584       -1.15740
H          0.29287        3.72682       -2.72585
H          3.85878       -0.73690        3.01182
H          3.64809       -0.68521       -3.30304
H         -3.28677       -1.84496       -0.61267
C         -2.87613       -0.81179       -2.47453
H         -2.56695        1.22753        2.00259
C         -2.84449       -0.84486        2.56517
H         -5.32019       -0.51123       -0.78466
H         -4.40848        0.92564       -1.19555
H         -4.68766        1.47706        1.06242
H         -5.02514       -0.17215        1.51703
H         -3.82789       -0.77507       -3.02277
H         -3.03467       -1.79110        2.04206
C          2.09161       -1.96432        2.93358
H          1.15878       -2.05351        2.37925
H          2.63845       -2.89549        2.77340
H          1.84242       -1.90740        3.99555
C          1.50784       -0.88503       -3.34146
H          1.31999        0.02795       -3.90966
H          1.48922       -1.71880       -4.04704
H          0.67259       -1.02204       -2.65697
C         -2.07482       -2.02093       -2.93371
H         -1.14342       -2.11865       -2.37827
H         -2.63160       -2.94592       -2.77207
H         -1.82338       -1.96973       -3.99545
C         -1.53459       -0.92031        3.32928
H         -1.51651       -1.75851        4.02960
H         -0.69387       -1.04849        2.64991
H         -1.35602       -0.00979        3.90440
H          2.39844        0.17365        2.72986
H          3.02522       -1.75674       -2.07493
H         -2.36001        0.12095       -2.73535
H         -3.67602       -0.73648        3.27558
