75
-122.81806946
P          1.81356       -0.57889       -0.05150
C          1.70705       -1.55113       -1.56161
C          1.53718       -0.94364       -2.78445
C          1.54446       -1.70327       -3.93932
C          1.71857       -3.07067       -3.86123
C          1.88134       -3.67873       -2.63230
C          1.87762       -2.91437       -1.47923
H          2.02093       -3.37284       -0.51347
H          2.01371       -4.74634       -2.57043
H          1.71988       -3.66505       -4.76027
H          1.40704       -1.22874       -4.89697
H          1.38546        0.12169       -2.82911
C          3.12715       -1.31720        0.93350
C          4.40511       -1.32273        0.42224
C          5.43228       -1.90627        1.14185
C          5.16920       -2.48960        2.36519
C          3.88271       -2.49647        2.86629
C          2.85809       -1.91270        2.14431
H          1.84947       -1.91654        2.52446
H          3.67623       -2.95487        3.81946
H          5.96847       -2.94347        2.92807
H          6.43454       -1.90768        0.74598
H          4.59130       -0.88169       -0.54463
C          2.19454        1.13810       -0.44234
C          3.34670        1.78707       -0.06429
C          3.50841        3.14242       -0.31479
C          2.47681        3.83569       -0.94779
C          1.30979        3.20234       -1.31325
C          1.16612        1.82784       -1.06599
O         -0.01680        1.14789       -1.39847
C         -1.20958        1.81446       -1.07596
C         -1.37121        3.18462       -1.33628
C         -2.55421        3.80199       -0.99539
C         -3.58750        3.09678       -0.37913
C         -3.39872        1.75176       -0.09226
C         -2.22969        1.11918       -0.44517
P         -1.82574       -0.57657        0.00381
C         -3.14818       -1.28894        0.99524
C         -4.39361       -1.40752        0.42111
C         -5.43428       -1.96534        1.14194
C         -5.21709       -2.40764        2.43161
C         -3.96326       -2.29750        2.99914
C         -2.92527       -1.73950        2.27602
H         -1.94346       -1.64779        2.71071
H         -3.79302       -2.64363        4.00537
H         -6.02676       -2.84149        2.99542
H         -6.41110       -2.05583        0.69600
H         -4.54361       -1.06979       -0.59266
C         -1.67373       -1.60328       -1.46041
C         -1.54019       -2.96332       -1.30052
C         -1.50534       -3.78467       -2.41324
C         -1.60975       -3.23656       -3.67643
C         -1.74329       -1.87084       -3.83088
C         -1.77594       -1.05236       -2.71702
H         -1.87583        0.01564       -2.82054
H         -1.81809       -1.44223       -4.81668
H         -1.58020       -3.87540       -4.54393
H         -1.39771       -4.85007       -2.29309
H         -1.47654       -3.37637       -0.30593
Pd         0.01120       -0.04282        1.39374
Cl        -1.50824        0.99941        2.70270
Cl         1.59790        0.85737        2.72783
H         -4.16046        1.20554        0.43537
C         -4.83963        3.78737        0.02867
H         -5.69202        3.10761       -0.00582
H         -5.05876        4.62796       -0.63096
H         -4.75504        4.17012        1.04648
H         -2.67185        4.85239       -1.19517
S         -0.03032        4.07801       -2.07972
H          2.58282        4.88798       -1.14376
C          4.76183        3.83375        0.08922
H          4.11687        1.24630        0.45621
H          4.65880        4.91720        0.01790
H          5.02303        3.59246        1.12047
H          5.59355        3.53256       -0.54894
