111
-148.55552935
P         -2.47873       -2.10553       -1.12820
P          0.12642       -0.39327       -0.54218
C         -1.34331       -1.69546       -2.48206
C         -0.19257       -0.98569       -2.21378
C         -3.20771       -3.79546       -1.32117
C         -2.60588       -4.77000       -0.33242
C         -1.63010       -2.07564       -3.77750
H         -2.54095       -2.61251       -3.98614
C         -0.75539       -1.75071       -4.80014
H         -0.97850       -2.04724       -5.81203
C          0.40075       -1.04497       -4.52667
H          1.08017       -0.79029       -5.32335
C          0.68125       -0.65729       -3.22866
H          1.57104       -0.09209       -2.99852
Pd        -1.33640       -1.56957        0.80137
Cl        -3.05913       -2.41649        1.96384
Cl        -0.10319       -1.03104        2.60116
C         -4.71591       -3.54149       -1.13809
C         -4.01754       -1.07899       -1.12532
H         -3.03797       -5.76751       -0.44136
H         -1.52420       -4.85174       -0.46384
H         -2.78679       -4.44333        0.69265
H         -4.97601       -3.71229       -0.08433
H         -5.30164       -4.27714       -1.71005
H         -4.16756       -0.75950       -0.08526
C         -5.10522       -2.08877       -1.53615
C         -3.88401        0.11835       -2.04110
H         -2.99574       -4.11097       -2.35064
H         -5.24749       -2.03238       -2.62417
H         -6.07435       -1.80730       -1.09682
H         -3.67051       -0.19757       -3.06393
H         -4.80128        0.71140       -2.06058
H         -3.06725        0.76921       -1.72178
C         -1.17854        3.93503       -0.01516
C         -1.10310        3.38782       -1.32223
C         -0.69726        2.07099       -1.46027
C         -0.44884        1.29204       -0.36120
C         -0.62674        1.78452        0.90386
C         -1.02928        3.09102        1.11477
O         -1.36101        5.33249        0.16061
C         -1.41353        4.21125       -2.58185
H         -0.55473        1.63768       -2.43430
H         -0.43355        1.12326        1.73079
C         -1.25961        3.57272        2.55506
C          4.43629       -0.68736        0.88356
C          3.88760        0.57444        0.53964
C          2.57272        0.61947        0.10901
C          1.83941       -0.52702       -0.05139
C          2.39697       -1.75694        0.17729
C          3.70781       -1.87426        0.61119
O          5.69566       -0.75934        1.53629
C          4.67120        1.88982        0.67066
H          2.09177        1.56205       -0.08740
H          1.78221       -2.62861        0.03166
C          4.29947       -3.27591        0.82671
C         -0.12722        4.89383       -3.07098
C         -1.95010        3.30303       -3.71176
C         -2.50025        5.26497       -2.30113
C         -1.76569        2.41065        3.44101
C          0.06629        4.08990        3.13367
C         -2.33134        4.67624        2.60870
C         -0.14618        6.06866        0.23157
H         -0.31301        5.47664       -3.97280
H          0.27522        5.56395       -2.31512
H          0.63904        4.15320       -3.29908
H         -1.18725        2.61696       -4.07666
H         -2.80237        2.71822       -3.36759
H         -2.27722        3.89892       -4.56353
H         -3.40085        4.79239       -1.91044
H         -2.16410        5.99679       -1.57079
H         -2.76686        5.80473       -3.20945
H         -2.05520        2.77316        4.42696
H         -2.63492        1.93086        2.99201
H         -0.99817        1.65332        3.59262
H         -0.06246        4.43197        4.16020
H          0.81957        3.30236        3.13220
H          0.45507        4.91994        2.54843
H         -2.01402        5.56490        2.06908
H         -3.26194        4.32872        2.16127
H         -2.53865        4.97161        3.63692
H         -0.13166        6.82533       -0.55274
H         -0.07986        6.57513        1.19428
H          0.70997        5.40351        0.11130
C          5.61513       -0.70464        2.95521
C          6.17340        1.66947        0.41721
C          4.18454        2.92097       -0.37390
C          4.44825        2.47519        2.07356
C          5.81618       -3.28701        0.56290
C          4.00699       -3.73267        2.26415
C          3.66645       -4.29179       -0.15126
H          6.61012        1.01176        1.16441
H          6.33497        1.21711       -0.56066
H          6.71877        2.61236        0.44928
H          4.20506        2.49580       -1.37702
H          3.17082        3.26031       -0.16542
H          4.82293        3.80419       -0.37176
H          3.38901        2.66298        2.24799
H          4.79384        1.79230        2.84581
H          4.98244        3.41739        2.19322
H          6.34716       -2.65432        1.26958
H          6.22230       -4.29416        0.65350
H          6.03365       -2.92241       -0.44045
H          4.45557       -3.05974        2.99079
H          2.93348       -3.75197        2.45077
H          4.39979       -4.73302        2.44410
H          2.61603       -4.46886        0.07469
H          4.17277       -5.25486       -0.08971
H          3.74238       -3.93891       -1.17944
H          6.17715        0.15438        3.32124
H          4.57514       -0.62199        3.27371
H          6.05570       -1.60563        3.38174
