171
-217.84433048
P         -1.59792        0.34381       -0.37417
P          1.64696       -0.33910       -0.25033
C         -0.84304        1.38206       -1.62931
C          1.01895       -1.26897       -1.65109
C          0.01529        0.83111       -2.57371
C          0.65343        1.69012       -3.48851
C          0.38287        3.04815       -3.44695
C         -0.49222        3.57055       -2.51850
C         -1.09913        2.73140       -1.60559
C          1.26914       -2.61823       -1.70829
C          0.74588       -3.37865       -2.73512
C         -0.04100       -2.77837       -3.69519
C         -0.30214       -1.41870       -3.65793
C          0.25151       -0.63866       -2.62413
Cl         1.47914        0.23145        2.96237
Cl        -1.69363       -0.34069        2.84077
C         -1.16999       -0.81574       -4.70670
C          1.59250        1.15768       -4.51263
H         -0.70054        4.62788       -2.50229
H         -1.78096        3.13194       -0.87355
H          1.87806       -3.08013       -0.94838
H          0.94784       -4.43627       -2.78127
H          0.86674        3.69947       -4.15512
H         -0.46646       -3.36910       -4.48895
C         -3.70084       -3.29574       -2.03695
C         -2.73592       -3.47403       -1.05401
C         -2.09245       -2.34472       -0.56284
C         -2.39464       -1.10335       -1.06405
C         -3.33882       -0.94477       -2.04908
C         -4.02006       -2.04673       -2.55365
H         -4.23502       -4.15551       -2.39712
H         -1.35708       -2.42045        0.21925
H         -3.54725        0.04906       -2.40762
C         -4.59936        2.65475        2.12947
C         -3.26048        3.02338        2.18206
C         -2.36471        2.32934        1.37953
C         -2.79149        1.29230        0.58746
C         -4.11565        0.93090        0.56246
C         -5.05164        1.61490        1.32717
H         -5.31358        3.17949        2.73551
H         -1.31867        2.58492        1.38751
H         -4.41236        0.09898       -0.05033
C          4.27757       -2.80853        2.51072
C          2.95443       -3.19201        2.32615
C          2.18001       -2.45260        1.44159
C          2.70618       -1.36523        0.78881
C          4.01208       -0.99483        0.99433
C          4.82583       -1.70677        1.86516
H          4.89358       -3.37652        3.18052
H          1.14815       -2.71240        1.27643
H          4.39697       -0.13156        0.48120
C          3.94048        3.39851       -1.35422
C          2.83879        3.50917       -0.51513
C          2.14200        2.34936       -0.19998
C          2.52479        1.14440       -0.73354
C          3.60574        1.05354       -1.57623
C          4.35085        2.18363       -1.89078
H          4.49915        4.28734       -1.57884
H          1.29892        2.37321        0.46856
H          3.88053        0.08994       -1.97227
Pd        -0.05102       -0.03959        1.33737
C         -1.25089       -4.87065        0.45801
C         -2.44413       -4.88035       -0.51479
C         -2.10580       -5.82320       -1.68508
C         -3.68523       -5.40113        0.23098
H         -1.02263       -5.87914        0.80256
H         -0.36115       -4.47324       -0.02918
H         -1.46648       -4.26391        1.33692
H         -1.85090       -6.81871       -1.32203
H         -2.94579       -5.92612       -2.37066
H         -1.25643       -5.44341       -2.25153
H         -3.94385       -4.73805        1.05639
H         -4.54718       -5.46015       -0.43284
H         -3.50695       -6.39585        0.63905
C         -5.25917       -0.47150       -4.12090
C         -5.14269       -1.91481       -3.59316
C         -6.47877       -2.30685       -2.93629
C         -4.86624       -2.84952       -4.78663
H         -5.51448        0.22112       -3.31919
H         -4.32507       -0.14330       -4.57597
H         -6.04000       -0.39833       -4.87777
H         -6.45623       -3.33737       -2.58329
H         -6.69070       -1.66644       -2.08099
H         -7.30398       -2.21206       -3.64185
H         -3.91127       -2.61434       -5.25389
H         -4.83857       -3.89352       -4.47759
H         -5.64300       -2.75067       -5.54476
C         -2.35893        5.35487        2.18815
C         -2.75103        4.16224        3.07635
C         -1.52421        3.68039        3.87716
C         -3.82654        4.62265        4.07954
H         -3.22230        5.72336        1.63445
H         -1.96329        6.17588        2.78579
H         -1.59934        5.06755        1.46326
H         -0.69138        3.42676        3.22351
H         -1.17883        4.45264        4.56412
H         -1.77090        2.79382        4.46087
H         -4.68970        5.04669        3.56716
H         -4.16448        3.79093        4.69752
H         -3.43171        5.39144        4.74368
C         -6.83562        0.10762        0.31816
C         -6.53881        1.23394        1.32791
C         -7.38376        2.46275        0.94316
C         -6.93377        0.74911        2.73426
H         -7.89725       -0.13896        0.31352
H         -6.56151        0.40935       -0.69253
H         -6.28856       -0.80093        0.56938
H         -7.25765        3.27304        1.66007
H         -7.09416        2.83605       -0.03899
H         -8.44378        2.21159        0.90948
H         -6.33040       -0.10976        3.02764
H         -6.78461        1.53136        3.47770
H         -7.98216        0.45300        2.76552
C          1.00030       -3.96384        3.70471
C          2.33297       -4.39071        3.05682
C          3.25648       -4.92242        4.17030
C          2.08442       -5.51855        2.04125
H          0.27174       -3.65247        2.95837
H          0.56089       -4.78481        4.27083
H          1.15543       -3.12768        4.38616
H          2.77778       -5.73782        4.71249
H          4.18961       -5.30760        3.76004
H          3.49152       -4.13810        4.88966
H          3.02284       -5.85203        1.59860
H          1.60946       -6.37679        2.51623
H          1.43993       -5.17998        1.23213
C          6.33480        0.24434        2.36059
C          6.28361       -1.26915        2.06945
C          7.07986       -1.57801        0.79053
C          6.93936       -2.00721        3.25290
H          7.35507        0.56675        2.56758
H          5.97172        0.82871        1.51633
H          5.72070        0.48955        3.22683
H          7.06718       -2.64664        0.57683
H          6.65200       -1.06265       -0.06768
H          8.11876       -1.26397        0.88970
H          7.95401       -1.64561        3.41947
H          6.37514       -1.84910        4.17189
H          7.00244       -3.07868        3.06486
C          1.14439        4.79445        0.87416
C          2.45530        4.87497        0.06973
C          2.26068        5.88980       -1.07252
C          3.57823        5.35446        1.00640
H          0.32927        4.43214        0.24881
H          1.24858        4.12750        1.72951
H          0.86278        5.77598        1.25511
H          3.18245        6.04233       -1.63225
H          1.49973        5.54223       -1.77014
H          1.94506        6.85789       -0.68394
H          4.51928        5.46543        0.46868
H          3.33068        6.31788        1.45173
H          3.73669        4.63933        1.81348
C          5.21029        1.57027       -4.17138
C          5.60750        2.05063       -2.76523
C          6.56413        1.02802       -2.12430
C          6.35367        3.39227       -2.90031
H          4.68345        0.61771       -4.12896
H          4.56050        2.29788       -4.65598
H          6.09033        1.43726       -4.80044
H          7.48720        0.94357       -2.69753
H          6.82353        1.32744       -1.10899
H          6.11050        0.03891       -2.08037
H          6.66157        3.76920       -1.92510
H          7.25126        3.27569       -3.50756
H          5.72770        4.14369       -3.38124
H         -2.08814       -1.39116       -4.82227
H          2.34519        1.90150       -4.77447
H         -0.66224       -0.79905       -5.67208
H         -1.45424        0.20673       -4.45497
H          1.06197        0.88709       -5.42623
H          2.11258        0.27090       -4.14753
