115
-277.94114723
P         -1.90858       -0.54698       -0.01983
P          1.68742        0.62237       -0.02389
C         -1.95008       -2.32684        0.23121
C         -0.80104       -3.02544        0.53332
H          0.09233       -2.50112        0.82924
C         -0.78394       -4.39803        0.39062
H          0.13006       -4.95812        0.51515
C         -1.91289       -5.06676       -0.05371
C         -3.09499       -4.36488       -0.22948
H         -3.96310       -4.88702       -0.59804
C         -3.11585       -2.99325       -0.08091
H         -4.00845       -2.43405       -0.31556
C         -3.45037        0.15790        0.61008
C         -4.16205       -0.45478        1.61633
H         -3.79491       -1.37165        2.04914
C         -5.32226        0.12213        2.09269
H         -5.88178       -0.33103        2.89586
C         -5.78097        1.30853        1.55573
C         -5.06210        1.91598        0.54460
H         -5.42358        2.84765        0.13897
C         -3.90033        1.34233        0.07378
H         -3.34737        1.81744       -0.71887
C         -1.68929       -0.05880       -1.76448
C         -1.23231        1.24325       -1.86657
H         -0.97582        1.78065       -0.96842
C         -0.93775        1.81407       -3.10399
C         -1.32224        1.11656       -4.24337
H         -1.14166        1.55042       -5.21264
C         -1.77120       -0.18566       -4.15014
H         -1.93625       -0.75234       -5.05089
C         -1.84788       -0.83844       -2.91993
C          1.47831        0.11946       -1.76578
C          1.03212       -1.18548       -1.84630
H          0.78713       -1.71026       -0.93883
C          0.74188       -1.77866       -3.07409
C          1.12908       -1.10253       -4.22516
H          0.95317       -1.55497       -5.18674
C          1.57970        0.20052       -4.15343
H          1.75142        0.75036       -5.06332
C          1.64911        0.87543       -2.93490
C         -1.74416       -2.34962       -2.93445
H         -2.40871       -2.75047       -3.70808
H         -2.14799       -2.74610       -2.00707
C         -0.27903       -2.88138       -3.14889
H         -0.02730       -3.65584       -2.41612
H         -0.19273       -3.38362       -4.11887
C          0.08705        2.91274       -3.20392
H         -0.15742        3.70922       -2.49293
H          0.00417        3.38962       -4.18696
C          1.54993        2.38480       -2.97653
H          2.21917        2.77540       -3.75175
H          1.95230        2.79935       -2.05611
C          2.02172        2.38420        0.10962
C          0.98919        3.27312        0.31864
C          3.27832        2.83528       -0.23653
C          1.18257        4.61350        0.05613
C          3.46531        4.17515       -0.51504
C          2.39952        5.05958       -0.43299
C          3.13649       -0.23906        0.63209
C          3.95730       -0.89352       -0.25802
C          3.45006       -0.22934        1.97077
C          5.08474       -1.54630        0.19415
H          3.71624       -0.89430       -1.30857
C          4.57543       -0.88264        2.42611
H          2.81226        0.29506        2.66520
C          5.40133       -1.54308        1.53894
H          5.73125       -2.07308       -0.48969
H          4.82856       -0.89486        3.47464
Pd        -0.18585        0.27046        1.35992
Cl        -1.69432       -0.23648        2.94936
Cl         1.13748        1.32100        2.84836
H          4.40489        4.52336       -0.91293
H          4.07796        2.12806       -0.39299
H          0.36145        5.31201        0.10547
H          0.01750        2.91888        0.62006
C         -3.05195       -7.26283       -0.60659
C         -1.73697       -6.43242       -0.66801
C         -1.25123       -6.17968       -2.13047
F         -2.79235       -8.52497       -0.98200
F         -3.49049       -7.23813        0.66066
F         -3.96999       -6.71329       -1.41362
F         -0.78608       -7.11234       -0.02287
F         -0.03158       -5.63206       -2.05622
F         -1.20859       -7.33626       -2.80552
F         -2.07982       -5.30751       -2.72211
C         -6.59987        3.16268        3.00148
C         -7.02224        1.95704        2.11366
C         -7.97310        2.37889        0.95449
F         -5.86327        2.67829        4.01283
F         -5.86232        4.01191        2.27109
F         -7.69531        3.77411        3.47670
F         -7.68463        1.09224        2.88684
F         -8.15870        1.30475        0.17269
F         -9.14419        2.78433        1.46908
F         -7.40548        3.36369        0.24429
C          6.26304       -3.82184        2.03968
C          6.59793       -2.30287        2.05171
C          7.85603       -1.96437        1.19850
F          7.32357       -4.51745        2.47674
F          5.21584       -4.00768        2.85749
F          5.93394       -4.19138        0.79322
F          6.85820       -1.95222        3.31419
F          7.97284       -0.62842        1.16319
F          8.93933       -2.50844        1.77403
F          7.69630       -2.43821       -0.04503
C          3.83266        6.98354       -1.25969
C          2.40873        6.35950       -1.19855
C          1.83452        6.02240       -2.61210
F          3.75151        8.21088       -1.79673
F          4.29877        7.05815       -0.00424
F          4.63618        6.20246       -1.99470
F          1.59301        7.24332       -0.61873
F          0.56289        5.63540       -2.44530
F          1.89745        7.10391       -3.40020
F          2.53126        5.00465       -3.13648
