105
-153.06888353
Cl        -1.02953        2.20840       -2.80044
Pd         0.16814        1.36400       -1.09125
P          1.33055        0.75732        0.81846
N          0.52828       -0.43719        1.82409
C         -0.00494       -1.70366        1.62408
C         -0.11524       -2.33621        0.36058
C         -0.79259       -3.56865        0.25812
C         -0.90565       -4.21919       -1.10134
C         -1.37881       -5.68114       -1.07406
C         -2.53082       -5.86893       -0.08269
C         -2.09438       -5.47312        1.33584
C         -1.33765       -4.17034        1.39402
C         -1.17596       -3.55677        2.62868
C         -0.52540       -2.35595        2.74192
H         -0.43968       -1.88078        3.70375
H         -1.58833       -4.02960        3.50398
H         -2.96809       -5.40476        1.99675
H         -3.37911       -5.24511       -0.39101
H         -1.67276       -6.01523       -2.07912
H         -1.59181       -3.62124       -1.71251
C          0.60145       -1.84351       -0.84079
C         -0.12707       -1.26598       -1.92125
C          0.53478       -1.06603       -3.13861
C          1.85880       -1.39211       -3.28259
C          2.57882       -1.96518       -2.24087
C          4.01006       -2.36572       -2.48129
C          4.43952       -3.55441       -1.61007
C          4.12853       -3.27332       -0.13691
C          2.63405       -2.97995        0.08676
C          1.94872       -2.20768       -1.01891
H          2.09691       -3.92644        0.22159
H          4.72141       -2.41337        0.19219
H          5.50589       -3.78133       -1.75113
H          4.65615       -1.50367       -2.28025
H          2.35474       -1.21210       -4.22124
H         -0.00385       -0.61477       -3.95321
N         -1.45454       -0.83490       -1.78225
P         -1.81020        0.18052       -0.37669
C         -2.80632       -0.75520        0.78808
C         -3.49754       -1.84270        0.31187
C         -4.31495       -2.56533        1.16189
C         -4.45203       -2.19095        2.49150
C         -3.75646       -1.07936        2.94903
C         -2.94364       -0.35571        2.09575
H         -2.41521        0.51490        2.44556
H         -3.85272       -0.78612        3.98046
C         -5.29160       -2.99489        3.42179
H         -4.84607       -3.42817        0.79841
H         -3.38392       -2.12478       -0.72255
C         -2.86937        1.57031       -0.79042
C         -2.67055        2.77435       -0.15683
C         -3.48673        3.84913       -0.45792
C         -4.51399        3.71827       -1.38287
C         -4.70024        2.49140       -2.00632
C         -3.88229        1.41719       -1.70550
H         -4.02944        0.46084       -2.18111
H         -5.48743        2.38364       -2.73279
C         -5.37110        4.88454       -1.73277
H         -3.32580        4.79975        0.02116
H         -1.87212        2.87286        0.56138
H         -1.84432       -0.35351       -2.58308
H          0.69674       -0.15848        2.78291
C          1.21279        2.31433        1.70223
C          2.22433        3.24269        1.64309
C          2.08011        4.45626        2.29019
C          0.91733        4.75132        2.98997
C         -0.09050        3.79780        3.04291
C          0.05799        2.58408        2.39677
H         -0.72162        1.84148        2.42985
H         -0.99180        4.01173        3.59164
C          0.76920        6.05069        3.70218
H          2.87030        5.18634        2.24935
H          3.11629        3.01987        1.08020
C          3.07707        0.35098        0.73920
C          3.83828        0.65521       -0.36393
C          5.19316        0.38357       -0.36553
C          5.80178       -0.17939        0.74750
C          5.02018       -0.47417        1.85669
C          3.66270       -0.20503        1.85218
H          3.05528       -0.42524        2.71546
H          5.47951       -0.91961        2.72248
C          7.25514       -0.50247        0.73186
H          5.78996        0.61707       -1.23069
H          3.37545        1.13430       -1.20925
Cl         1.88134        2.74112       -1.56111
H         -1.46413       -6.26227        1.76291
H         -0.54209       -6.32850       -0.78277
H         -2.90152       -6.90355       -0.10530
H          0.06566       -4.15236       -1.60726
H          4.45816       -4.11033        0.49446
H          2.49392       -2.43550        1.02825
H          4.15042       -2.59836       -3.54456
H          3.89917       -4.45405       -1.93062
H         -6.10578       -3.48963        2.89039
H         -4.69476       -3.76405        3.91401
H         -5.73488       -2.36605        4.19517
H         -6.36949        4.56386       -2.03344
H         -5.48234        5.56040       -0.88372
H         -4.93597        5.44958       -2.55815
H         -0.27544        6.36308        3.73745
H          1.13273        5.97402        4.72780
H          1.33318        6.83985        3.20299
H          7.81489        0.23446        0.15422
H          7.66792       -0.51432        1.74154
H          7.42907       -1.48263        0.28552
