59
-75.80871492
Cl         1.75063        0.39135        2.32014
P          1.62867       -0.03703       -0.88440
P         -1.56400       -0.08818       -0.75695
C          0.61874        0.00354       -2.43107
H          0.40143        1.04579       -2.67436
H          1.21847       -0.40108       -3.25217
C         -0.65659       -0.76233       -2.22161
H         -0.44861       -1.81877       -2.04172
H         -1.31743       -0.70904       -3.09219
C          2.81768       -1.46446       -0.88714
H          2.77485       -1.89705       -1.89402
C          2.83872        1.36425       -0.75013
H          2.81437        1.67900        0.30055
C         -3.06116       -1.11837       -0.38285
H         -3.42658       -0.77080        0.59137
C         -2.51355        1.41480       -1.29218
H         -1.89269        1.98515       -1.99329
C          4.18433       -0.79756       -0.64394
H          4.42425       -0.86782        0.42598
H          4.98064       -1.35431       -1.16078
C          4.18399        0.69297       -1.07002
H          4.36938        0.76738       -2.15056
H          5.00935        1.24073       -0.58983
C         -4.02886       -0.67481       -1.49582
H         -3.94226       -1.38305       -2.33269
H         -5.07013       -0.76604       -1.15047
C         -3.73636        0.77945       -1.99489
H         -4.61728        1.41760       -1.83374
H         -3.58208        0.77711       -3.08471
C          2.47577       -2.52375        0.15604
H          2.34931       -2.03193        1.12957
H          3.33808       -3.19357        0.28096
C          2.51111        2.54866       -1.65152
H          3.36913        3.23512       -1.66799
H          2.40996        2.19251       -2.68477
C         -2.79886       -2.62093       -0.32054
H         -3.74989       -3.15584       -0.45112
H         -2.18585       -2.91571       -1.18088
C         -2.91671        2.28581       -0.10134
H         -3.72258        2.96514       -0.41300
H         -3.36687        1.64082        0.66458
C          1.24163       -3.33596       -0.19425
H          0.36803       -2.69390       -0.29335
H          1.01363       -4.08644        0.56613
H          1.36653       -3.85730       -1.14521
C          1.26153        3.29345       -1.21460
H          1.01957        4.12211       -1.88398
H          1.37892        3.70413       -0.20985
H          0.39859        2.62834       -1.18754
C         -2.14621       -3.05207        0.98470
H         -1.22438       -2.50160        1.17199
H         -1.90511       -4.11740        0.99327
H         -2.80207       -2.85697        1.83531
C         -1.77972        3.09656        0.49915
H         -2.10801        3.68259        1.36062
H         -0.96587        2.45674        0.83892
H         -1.36636        3.79586       -0.22949
Cl        -1.46413        0.02876        2.45944
Pd         0.09997        0.01411        0.84926
