58
-89.86707448
P          1.75082       -0.03258        0.64130
C          1.54229        1.75217        0.54636
C          1.25890        2.31260       -0.67908
C          1.07880        3.67933       -0.78864
C          1.18911        4.47780        0.33198
C          1.49052        3.91460        1.55610
C          1.67352        2.54767        1.66172
H          1.93452        2.10447        2.60866
H          1.18233        1.67612       -1.54649
C          3.37360       -0.50519        0.03296
C          4.21350        0.44885       -0.49494
C          5.45756        0.08178       -0.97514
C          5.85040       -1.24109       -0.92528
C          5.00311       -2.19585       -0.39849
C          3.75954       -1.82513        0.08163
H          3.08199       -2.56299        0.48118
H          3.89123        1.47664       -0.53308
C          1.58861       -0.66847        2.35850
C          0.31263       -0.25346        3.07166
C         -0.93133       -0.98186        2.59405
P         -1.52620       -0.46861        0.93389
C         -1.89358        1.28893        0.83142
C         -1.98724        2.08025        1.95365
C         -2.25396        3.43088        1.82024
C         -2.43575        3.97845        0.56555
C         -2.35963        3.17814       -0.55667
C         -2.08962        1.82949       -0.41901
H         -2.03287        1.18431       -1.28137
H         -1.86815        1.64246        2.93080
C         -2.98248       -1.44785        0.55653
C         -4.21212       -0.84048        0.44414
C         -5.32846       -1.59936        0.14231
C         -5.20303       -2.96171       -0.04613
C         -3.96637       -3.56619        0.06600
C         -2.85156       -2.80462        0.36880
H         -1.87722       -3.26054        0.44957
H         -4.29234        0.22501        0.58706
Pd         0.04115       -0.75852       -0.75585
Cl         1.62764       -1.36604       -2.21702
Cl        -1.71637       -1.02946       -2.12996
H         -0.75801       -2.05895        2.55914
H         -1.77260       -0.82119        3.27283
H          0.43393       -0.42041        4.15343
H          0.16783        0.82777        2.96262
H          1.66928       -1.75598        2.31616
H          2.47393       -0.30864        2.88875
H          0.84807        4.11753       -1.74566
H          1.58440        4.53927        2.42918
H          6.11642        0.82665       -1.39027
H          5.30655       -3.22936       -0.36619
H         -2.32021        4.05522        2.69609
H         -2.50583        3.60186       -1.53655
H         -6.29267       -1.12693        0.05086
H         -3.86762       -4.62835       -0.08665
H          1.04299        5.54254        0.25050
H          6.81822       -1.52956       -1.30186
H         -2.64037        5.03160        0.46238
H         -6.07146       -3.55393       -0.28450
