58
-89.86821317
P          1.89905       -0.19003        0.42675
C          1.55360        1.56854        0.62646
C          1.11972        2.27314       -0.47366
C          0.82507        3.61964       -0.36231
C          0.97195        4.25607        0.85319
C          1.42054        3.55095        1.95170
C          1.71666        2.20524        1.83559
H          2.08365        1.65693        2.68697
H          1.01232        1.76650       -1.41990
C          3.48972       -0.41657       -0.37591
C          4.21208        0.68122       -0.78621
C          5.43519        0.50847       -1.40858
C          5.92601       -0.76514       -1.61768
C          5.19728       -1.86397       -1.20734
C          3.97476       -1.68739       -0.58401
H          3.38720       -2.53762       -0.27568
H          3.81567        1.66957       -0.61973
C          1.87688       -1.10150        2.03039
C          0.49030       -1.49006        2.52617
C         -0.50647       -0.33619        2.56749
P         -1.40521       -0.16665        0.96597
C         -1.96776        1.51416        0.67473
C         -2.03061        2.43632        1.69486
C         -2.46701        3.72202        1.43023
C         -2.84189        4.07335        0.14818
C         -2.78826        3.14170       -0.86947
C         -2.35224        1.85784       -0.60070
H         -2.31117        1.11067       -1.37686
H         -1.73975        2.15151        2.69272
C         -2.79733       -1.30055        0.99904
C         -4.04489       -0.81215        1.31485
C         -5.13069       -1.66870        1.35139
C         -4.95751       -3.00977        1.07143
C         -3.70388       -3.49528        0.75568
C         -2.61997       -2.63659        0.72104
H         -1.63953       -3.00224        0.46177
H         -4.16391        0.23847        1.52721
Pd         0.00166       -0.76662       -0.78349
Cl         1.39105       -1.63742       -2.31124
Cl        -1.87520       -1.08644       -1.97921
H         -1.27741       -0.48934        3.32709
H         -0.00865        0.60345        2.80590
H          0.08098       -2.28600        1.88893
H          0.58049       -1.94529        3.52493
H          2.50501       -1.98618        1.90314
H          2.38739       -0.46967        2.75856
H          0.47475        4.16758       -1.22151
H          1.54053        4.04873        2.89996
H          6.00177        1.36640       -1.73141
H          5.57642       -2.85831       -1.37700
H         -2.51102        4.44934        2.22417
H         -3.08489        3.41240       -1.86938
H         -6.10910       -1.28873        1.59549
H         -3.56964       -4.54080        0.53174
H          0.73633        5.30384        0.94444
H          6.87752       -0.90197       -2.10516
H         -3.17905        5.07610       -0.05794
H         -5.80266       -3.67822        1.09660
