64
-97.22267038
Cl        -1.30393       -0.31033       -2.82335
Cl         1.88218       -0.66614       -2.94059
P          1.94447       -0.69820        0.35361
C          2.02700       -2.45164        0.95408
C          3.76721       -0.38543        0.16621
P         -1.25853       -0.30852        0.37512
C          1.19401        0.45044        1.56349
C         -0.24611        0.61273        1.59705
C         -0.55595        1.62589        2.59571
C          0.69600        2.09060        3.16756
C          1.77987        1.36453        2.52979
H         -1.55517        1.94319        2.89999
H          0.80235        2.84050        3.95437
Pd         0.32886       -0.68138       -1.32961
H          2.84577        1.47893        2.73509
C         -5.15644        1.71464       -0.86127
C         -4.86442        0.43008       -1.27422
C         -3.67691       -0.16485       -0.88661
C         -2.78581        0.52463       -0.09613
C         -3.08158        1.80129        0.32383
C         -4.26610        2.40140       -0.06031
H         -6.07987        2.18111       -1.16368
H         -5.55746       -0.10831       -1.89961
H         -3.43453       -1.16654       -1.20518
H         -2.38381        2.32798        0.94954
H         -4.49272        3.40361        0.26477
C         -2.41014       -4.39605        1.98621
C         -2.01144       -4.26722        0.66994
C         -1.66536       -3.02355        0.17366
C         -1.71538       -1.92346        0.99838
C         -2.12138       -2.04257        2.30745
C         -2.46867       -3.28575        2.80596
H         -2.67970       -5.36504        2.37370
H         -1.97129       -5.13288        0.02936
H         -1.36421       -2.90426       -0.85474
H         -2.15729       -1.16431        2.93288
H         -2.78299       -3.38624        3.83182
C          4.15255        0.52999       -0.97473
H          4.08687        0.04558        1.12429
C          4.32973       -1.81002        0.02565
H          5.39736       -1.82913        0.29323
C          3.52188       -2.82155        0.87891
H          4.28499       -2.10163       -1.03305
C          1.45459       -2.55967        2.35089
H          1.44093       -3.04412        0.23897
H          3.93138       -2.84333        1.89775
H          3.64542       -3.84466        0.49420
H          1.49190       -3.58687        2.72103
H          2.01683       -1.93300        3.04612
H          0.41673       -2.22635        2.38388
H          5.23767        0.60155       -1.07303
H          3.76443        0.15648       -1.92176
H          3.76931        1.53936       -0.82941
Fe         0.64469        2.35513        1.11232
C          1.96248        3.43034       -0.05265
C          0.97370        4.29856        0.56268
C         -0.34168        3.85778        0.13039
C         -0.16741        2.72047       -0.75415
C          1.25258        2.45033       -0.85405
H          3.04556        3.52173        0.05361
H          1.18366        5.15140        1.21243
H         -1.29024        4.33771        0.38179
H         -0.95191        2.17468       -1.28206
H          1.69396        1.68734       -1.49833
