171
-217.84557476
P         -1.57194        0.37708       -0.43733
P          1.62397       -0.35445       -0.26052
C         -0.81369        1.38247       -1.71869
C          1.02366       -1.27933       -1.68107
C          0.05484        0.81740       -2.64534
C          0.70860        1.66120       -3.56403
C          0.43353        3.01842       -3.55076
C         -0.45837        3.55417       -2.64610
C         -1.07191        2.73144       -1.72183
C          1.26588       -2.63086       -1.72693
C          0.76169       -3.39432       -2.76124
C         -0.00209       -2.79642       -3.74070
C         -0.25813       -1.43580       -3.71458
C          0.28063       -0.65296       -2.67515
Cl         1.42373        0.18999        2.94940
Cl        -1.76714       -0.44670        2.73306
C         -1.08617       -0.82744       -4.79219
C          1.68021        1.12186       -4.55498
H         -0.67052        4.61080       -2.65467
H         -1.75668        3.14338       -0.99821
H          1.85497       -3.09324       -0.95208
H          0.96098       -4.45279       -2.79953
H          0.92880        3.65821       -4.26163
H         -0.40989       -3.38917       -4.54214
C         -3.68861       -3.36436       -1.83563
C         -2.77736       -3.45754       -0.79037
C         -2.11590       -2.30040       -0.40417
C         -2.35945       -1.11081       -1.04341
C         -3.26180       -1.03297       -2.07520
C         -3.95054       -2.16667       -2.49099
H         -4.22838       -4.24114       -2.13992
H         -1.42136       -2.32203        0.41813
H         -3.43501       -0.07591       -2.53726
C         -4.57924        2.74077        2.00456
C         -3.22983        3.05897        2.11596
C         -2.32688        2.34869        1.33621
C         -2.75996        1.35134        0.49874
C         -4.09403        1.04464        0.40780
C         -5.03488        1.73799        1.15584
H         -5.29072        3.27876        2.60071
H         -1.27223        2.55673        1.40341
H         -4.40454        0.24334       -0.23967
C          4.35434       -2.86942        2.34995
C          3.01702       -3.23310        2.23403
C          2.20631       -2.47023        1.40406
C          2.71049       -1.37723        0.74494
C          4.02750       -1.02091        0.88777
C          4.88093       -1.76439        1.69040
H          4.99939       -3.45723        2.97385
H          1.16612       -2.71876        1.28048
H          4.39218       -0.14606        0.37860
C          3.82779        3.48915       -1.15402
C          2.77389        3.51663       -0.24834
C          2.08202        2.33370       -0.02735
C          2.44937        1.17924       -0.67278
C          3.49698        1.16580       -1.55986
C          4.21047        2.33014       -1.81906
H          4.38213        4.38959       -1.33945
H          1.25634        2.30667        0.66232
H          3.75992        0.23484       -2.03293
Pd        -0.08184       -0.05946        1.30169
C         -3.37316       -5.92228       -0.55618
C         -2.50034       -4.76482       -0.03545
C         -2.80195       -4.55987        1.46167
C         -1.02136       -5.14650       -0.21641
H         -3.16700       -6.83972       -0.00499
H         -4.43308       -5.69742       -0.43868
H         -3.17535       -6.11969       -1.60961
H         -2.63143       -5.47798        2.02354
H         -2.16946       -3.78494        1.89269
H         -3.83989       -4.26156        1.60744
H         -0.78299       -6.05934        0.32914
H         -0.79426       -5.31255       -1.26884
H         -0.36649       -4.35580        0.14613
C         -5.10214       -0.72342       -4.24405
C         -5.02917       -2.11364       -3.58225
C         -6.39671       -2.42214       -2.94538
C         -4.71784       -3.15676       -4.67213
H         -5.85472       -0.70968       -5.03230
H         -5.37359        0.04367       -3.51916
H         -4.14797       -0.45093       -4.69347
H         -7.19255       -2.38000       -3.68877
H         -6.40809       -3.41565       -2.49838
H         -6.62773       -1.70101       -2.16143
H         -3.73480       -2.98117       -5.10721
H         -4.72879       -4.16892       -4.27004
H         -5.45389       -3.11220       -5.47469
C         -3.83949        4.78537        3.88684
C         -2.70038        4.11864        3.09255
C         -1.95031        5.20769        2.30532
C         -1.73740        3.44433        4.08891
H         -4.38684        4.05166        4.47828
H         -3.44472        5.53370        4.57399
H         -4.54097        5.28713        3.22056
H         -2.60610        5.67468        1.57077
H         -1.57808        5.98598        2.97128
H         -1.09747        4.78903        1.77473
H         -2.24505        2.65069        4.63651
H         -0.88422        2.99983        3.57794
H         -1.35477        4.16449        4.81172
C         -6.96657        1.51780       -0.42813
C         -6.51506        1.34912        1.03486
C         -7.41143        2.22702        1.92859
C         -6.68581       -0.12124        1.46148
H         -8.01995        1.26308       -0.54345
H         -6.82972        2.54777       -0.75694
H         -6.39430        0.87508       -1.09601
H         -8.45828        1.94170        1.82501
H         -7.14344        2.11925        2.97944
H         -7.32752        3.27876        1.65546
H         -6.11084       -0.78919        0.82091
H         -6.34399       -0.26620        2.48605
H         -7.73098       -0.42509        1.40678
C          1.06170       -4.08600        3.57480
C          2.42740       -4.45257        2.95729
C          3.34954       -4.93657        4.09353
C          2.24637       -5.59218        1.94076
H          0.32422       -3.84908        2.80972
H          0.66543       -4.91338        4.16307
H          1.15558       -3.22005        4.22975
H          2.88574       -5.75329        4.64658
H          4.29815       -5.30574        3.70493
H          3.55422       -4.13061        4.79809
H          1.59964       -5.28330        1.12092
H          3.20568       -5.88432        1.51396
H          1.80226       -6.46973        2.41027
C          7.00923       -1.34069        0.43485
C          6.34625       -1.32682        1.82502
C          7.13925       -2.26349        2.75603
C          6.39528        0.09894        2.40640
H          8.05637       -1.04539        0.49856
H          6.96492       -2.33771       -0.00293
H          6.51083       -0.65381       -0.24806
H          6.71466       -2.27014        3.75974
H          7.14344       -3.28438        2.37454
H          8.17629       -1.93846        2.83916
H          5.89446        0.81161        1.75197
H          5.90235        0.13490        3.37764
H          7.42459        0.43266        2.53630
C          2.11833        4.49288        1.98018
C          2.34782        4.79658        0.48540
C          1.04469        5.31613       -0.14168
C          3.42380        5.89493        0.38033
H          1.29861        3.79160        2.12748
H          3.01340        4.06065        2.42687
H          1.87244        5.40189        2.52884
H          1.19570        5.56150       -1.19259
H          0.26103        4.56216       -0.08457
H          0.69258        6.21256        0.36838
H          3.13806        6.77255        0.96014
H          4.38107        5.54036        0.76223
H          3.56076        6.21771       -0.65134
C          5.25489        3.44382       -3.81815
C          5.43288        2.35041       -2.74765
C          5.62818        0.99787       -3.46073
C          6.68992        2.64641       -1.90928
H          6.09691        3.45125       -4.51011
H          4.34658        3.27661       -4.39565
H          5.18769        4.43404       -3.36963
H          4.75158        0.73495       -4.05180
H          6.48290        1.03674       -4.13589
H          5.81358        0.19817       -2.74405
H          7.58311        2.65524       -2.53369
H          6.61567        3.61547       -1.41689
H          6.82474        1.88943       -1.13684
H         -1.49349        0.13702       -4.48587
H          1.22487        1.03959       -5.54275
H         -1.92636       -1.47360       -5.04759
H         -0.49679       -0.67424       -5.69713
H          2.03997        0.13396       -4.26417
H          2.54853        1.77549       -4.64166
