171
-217.84619256
P         -1.58888        0.40009       -0.38467
P          1.63062       -0.31669       -0.26317
C         -0.82688        1.45520       -1.62386
C          1.01018       -1.20348       -1.69499
C          0.03589        0.92480       -2.57657
C          0.69853        1.80449       -3.45413
C          0.44708        3.16376       -3.36920
C         -0.43255        3.66723       -2.43450
C         -1.06189        2.80704       -1.55671
C          1.25996       -2.55056       -1.78685
C          0.76025       -3.27744       -2.84970
C         -0.00544       -2.64740       -3.80797
C         -0.26996       -1.28991       -3.73234
C          0.26324       -0.54366       -2.66378
Cl         1.52591        0.39570        2.88189
Cl        -1.68292       -0.45896        2.80443
C         -1.09433       -0.64282       -4.78980
C          1.66376        1.30355       -4.47109
H         -0.62380        4.72662       -2.38332
H         -1.74068        3.19324       -0.81401
H          1.84948       -3.03479       -1.02492
H          0.96544       -4.33259       -2.92737
H          0.95382        3.83119       -4.04576
H         -0.40794       -3.21244       -4.63176
C         -3.59446       -3.36254       -1.88122
C         -2.67958       -3.46023       -0.83959
C         -2.03963       -2.29787       -0.43102
C         -2.32342       -1.09744       -1.03302
C         -3.23630       -1.01484       -2.05526
C         -3.89410       -2.15518       -2.50099
H         -4.10538       -4.24621       -2.21376
H         -1.32458       -2.32136        0.37294
H         -3.44165       -0.04965       -2.48639
C         -4.71487        2.59629        2.06852
C         -3.38477        2.98711        2.17874
C         -2.44516        2.32704        1.39802
C         -2.82291        1.30572        0.56261
C         -4.13805        0.92346        0.47841
C         -5.11488        1.56499        1.22640
H         -5.45534        3.10163        2.65784
H         -1.40497        2.59987        1.45519
H         -4.40602        0.10601       -0.16770
C          4.23080       -2.94590        2.36663
C          2.86624       -3.20312        2.30369
C          2.09557       -2.41370        1.46070
C          2.66701       -1.39392        0.74057
C          4.01431       -1.14590        0.82513
C          4.82834       -1.92690        1.63521
H          4.84956       -3.54195        3.01063
H          1.03372       -2.57769        1.38711
H          4.42378       -0.32360        0.26671
C          3.91669        3.44882       -1.27804
C          2.85141        3.52935       -0.39035
C          2.16258        2.35961       -0.09775
C          2.51639        1.17675       -0.69677
C          3.55814        1.11666       -1.58950
C          4.28788        2.26010       -1.89426
H          4.48759        4.33615       -1.48018
H          1.34959        2.35921        0.60699
H          3.80014        0.16733       -2.03633
Pd        -0.05681        0.04287        1.33102
C         -0.96863       -5.26801       -0.64344
C         -2.34733       -4.79479       -0.15693
C         -3.39178       -5.87803       -0.49049
C         -2.32429       -4.60968        1.37417
H         -0.67784       -6.19908       -0.15735
H         -0.97916       -5.43715       -1.71987
H         -0.20612       -4.51990       -0.43190
H         -3.18179       -6.79813        0.05483
H         -4.39446       -5.54978       -0.21694
H         -3.38497       -6.12140       -1.55256
H         -2.14326       -5.55871        1.87851
H         -1.54133       -3.92029        1.68519
H         -3.27664       -4.21575        1.72826
C         -5.09988       -0.69562       -4.20323
C         -4.97514       -2.10418       -3.58988
C         -6.33004       -2.48506       -2.96515
C         -4.62592       -3.09708       -4.71461
H         -5.85505       -0.68174       -4.98900
H         -5.39589        0.03592       -3.45174
H         -4.15756       -0.37396       -4.64503
H         -7.12753       -2.44476       -3.70687
H         -6.30521       -3.49396       -2.55469
H         -6.58644       -1.80193       -2.15555
H         -3.64999       -2.87078       -5.14212
H         -4.59941       -4.12209       -4.34729
H         -5.36319       -3.05210       -5.51603
C         -4.06038        4.58062        4.04630
C         -2.92424        4.11146        3.11712
C         -2.45226        5.30638        2.27102
C         -1.76269        3.60336        3.99498
H         -4.44457        3.75257        4.64176
H         -3.70488        5.34737        4.73457
H         -4.88437        5.00975        3.47675
H         -3.26553        5.68611        1.65284
H         -2.09915        6.11998        2.90436
H         -1.63833        5.01831        1.60781
H         -2.06368        2.71874        4.55568
H         -0.89322        3.33723        3.39580
H         -1.44997        4.36588        4.70796
C         -7.03487        1.26454       -0.35720
C         -6.57275        1.09995        1.10280
C         -7.51215        1.91719        2.00980
C         -6.66594       -0.38298        1.50972
H         -8.07255        0.95328       -0.47595
H         -6.95575        2.30515       -0.67112
H         -6.42794        0.66460       -1.03415
H         -8.54178        1.57415        1.90886
H         -7.23203        1.81487        3.05804
H         -7.48981        2.97454        1.74658
H         -6.06037       -1.01212        0.85821
H         -6.31329       -0.52399        2.53117
H         -7.69438       -0.73928        1.45422
C          3.18433       -5.00495        4.07527
C          2.18236       -4.28204        3.15511
C          1.52950       -5.32198        2.22869
C          1.10288       -3.61953        4.03350
H          3.66552       -4.30432        4.75744
H          2.67972       -5.75924        4.67894
H          3.95637       -5.51014        3.49520
H          1.04422       -6.11001        2.80429
H          0.77538       -4.85925        1.59569
H          2.27384       -5.78402        1.58046
H          1.54437       -2.85727        4.67499
H          0.33639       -3.13810        3.42764
H          0.61071       -4.35480        4.66959
C          7.10653       -2.94608        1.37158
C          6.33676       -1.67102        1.76239
C          6.66336       -1.29008        3.21769
C          6.79734       -0.52366        0.84119
H          8.18287       -2.78484        1.42952
H          6.85914       -3.77729        2.03072
H          6.86427       -3.24384        0.35154
H          6.10814       -0.40076        3.51537
H          6.40076       -2.09330        3.90517
H          7.72630       -1.08146        3.33776
H          6.58272       -0.75030       -0.20302
H          6.30238        0.41177        1.10165
H          7.87163       -0.36285        0.93021
C          1.18907        4.76589        1.08034
C          2.49558        4.86817        0.26944
C          2.30637        5.94549       -0.81530
C          3.63525        5.27882        1.21776
H          0.36585        4.43891        0.44600
H          1.29086        4.06206        1.90601
H          0.91973        5.73265        1.50537
H          3.22577        6.11596       -1.37370
H          1.53509        5.64620       -1.52397
H          2.00727        6.89547       -0.37271
H          3.41063        6.22347        1.71268
H          3.78678        4.52138        1.98664
H          4.57329        5.39771        0.67635
C          5.37805        3.31120       -3.90730
C          5.51280        2.22798       -2.81964
C          5.66358        0.85965       -3.51286
C          6.77599        2.49620       -1.98182
H          5.34056        4.30976       -3.47418
H          6.22536        3.28098       -4.59217
H          4.47030        3.16587       -4.49108
H          4.77596        0.61533       -4.09576
H          6.51591        0.86213       -4.19216
H          5.82801        0.06539       -2.78508
H          6.72828        3.47254       -1.50052
H          6.88721        1.74462       -1.20089
H          7.67043        2.47189       -2.60405
H         -1.91017       -1.29545       -5.10138
H          1.22294        1.31947       -5.46876
H         -0.49189       -0.41915       -5.67114
H         -1.53496        0.29004       -4.43531
H          1.97832        0.28161       -4.25550
H          2.55942        1.92441       -4.49166
