171
-217.84608056
P         -1.59918        0.36230       -0.37982
P          1.60799       -0.36155       -0.20564
C         -0.81619        1.36564       -1.64823
C          0.98435       -1.31250       -1.59581
C          0.03769        0.78431       -2.57883
C          0.70381        1.61666       -3.49913
C          0.46585        2.98090       -3.47422
C         -0.40404        3.53453       -2.55884
C         -1.03885        2.72100       -1.64143
C          1.20804       -2.66740       -1.61890
C          0.69214       -3.43907       -2.64107
C         -0.06029       -2.84422       -3.63179
C         -0.29660       -1.47943       -3.62761
C          0.24913       -0.68934       -2.59766
Cl         1.44474        0.31070        2.96340
Cl        -1.76263       -0.32204        2.83646
C         -1.11321       -0.87449       -4.71554
C          1.65304        1.05848       -4.50111
H         -0.58534        4.59688       -2.55525
H         -1.71412        3.14652       -0.91740
H          1.79150       -3.12449       -0.83660
H          0.87563       -4.50086       -2.66167
H          0.97476        3.61229       -4.18298
H         -0.47611       -3.44308       -4.42449
C         -3.68597       -3.33217       -1.93904
C         -2.74411       -3.47234       -0.92801
C         -2.10675       -2.32550       -0.47182
C         -2.39032       -1.10526       -1.03241
C         -3.31204       -0.98468       -2.04354
C         -3.98683       -2.10478       -2.51568
H         -4.21702       -4.20408       -2.27368
H         -1.39120       -2.37164        0.33057
H         -3.50865       -0.00606       -2.44750
C         -4.61723        2.72060        2.05561
C         -3.27703        3.08249        2.12282
C         -2.37416        2.37564        1.33951
C         -2.79686        1.33466        0.55053
C         -4.12248        0.98019        0.51080
C         -5.06461        1.67521        1.25769
H         -5.33650        3.25447        2.64751
H         -1.32640        2.62305        1.36136
H         -4.41513        0.14358       -0.09769
C          4.36734       -2.79922        2.45412
C          3.03009       -3.16975        2.36428
C          2.20663       -2.43775        1.51854
C          2.70006       -1.36671        0.81592
C          4.01891       -1.00549        0.93163
C          4.88360       -1.71767        1.75015
H          5.02039       -3.36154        3.09303
H          1.16536       -2.69306        1.41935
H          4.37797       -0.14917        0.38850
C          3.89206        3.35914       -1.37037
C          2.83173        3.47874       -0.48102
C          2.13238        2.32617       -0.14623
C          2.47250        1.12207       -0.70954
C          3.51065        1.02252       -1.60313
C          4.25061        2.14755       -1.94777
H          4.47133        4.23365       -1.60236
H          1.32542        2.35364        0.56514
H          3.74766        0.05475       -2.01180
Pd        -0.09337       -0.03927        1.36417
C         -1.29053       -4.80742        0.66920
C         -2.47106       -4.85380       -0.31893
C         -2.12466       -5.85393       -1.43820
C         -3.72673       -5.32879        0.43271
H         -1.07350       -5.80071        1.06176
H         -0.39156       -4.43793        0.17706
H         -1.51270       -4.16059        1.51746
H         -1.88261       -6.83281       -1.02463
H         -2.95611       -5.98350       -2.12962
H         -1.26474       -5.50796       -2.01029
H         -3.56316       -6.30501        0.88880
H         -3.99048       -4.62590        1.22279
H         -4.57996       -5.41099       -0.23989
C         -4.78268       -3.00147       -4.72985
C         -5.08339       -2.01313       -3.58663
C         -5.17810       -0.59429       -4.18089
C         -6.43745       -2.36810       -2.94580
H         -4.77545       -4.03126       -4.37531
H         -5.53552       -2.92822       -5.51454
H         -3.81140       -2.79585       -5.17711
H         -4.23115       -0.29144       -4.62671
H         -5.93955       -0.55118       -4.95950
H         -5.44897        0.13473       -3.41747
H         -6.42945       -3.38103       -2.54457
H         -6.66681       -1.68722       -2.12693
H         -7.24437       -2.30273       -3.67545
C         -2.36212        5.40911        2.12178
C         -2.77360        4.22626        3.01438
C         -1.56127        3.74438        3.83689
C         -3.86045        4.70163        3.99821
H         -3.21562        5.77801        1.55326
H         -1.96997        6.23278        2.71806
H         -1.59432        5.11169        1.40975
H         -1.21976        4.52145        4.52035
H         -1.82220        2.86584        4.42653
H         -0.72151        3.47794        3.19744
H         -4.71410        5.12549        3.47000
H         -4.21142        3.87749        4.61909
H         -3.47071        5.47445        4.66067
C         -7.39063        2.52296        0.83817
C         -6.55254        1.29735        1.24696
C         -6.96345        0.83069        2.65498
C         -6.84092        0.15865        0.24849
H         -8.45077        2.27353        0.79622
H         -7.27035        3.34164        1.54652
H         -7.08972        2.88365       -0.14528
H         -8.01268        0.53689        2.67875
H         -6.36490       -0.02558        2.96535
H         -6.82065        1.62173        3.39031
H         -6.29806       -0.74748        0.51706
H         -7.90286       -0.08632        0.23622
H         -6.55603        0.44650       -0.76331
C          3.42758       -4.86627        4.22086
C          2.44728       -4.35499        3.14712
C          2.14711       -5.50032        2.16550
C          1.14836       -3.91832        3.85464
H          3.70187       -4.06779        4.91011
H          2.97703       -5.66904        4.80445
H          4.33696       -5.26263        3.76996
H          3.06058       -5.83766        1.67606
H          1.70355       -6.35228        2.68045
H          1.45592       -5.17755        1.38891
H          0.74548       -4.72685        4.46420
H          1.33413       -3.06425        4.50552
H          0.37828       -3.63117        3.14074
C          7.14717       -2.15311        2.83264
C          6.35116       -1.27742        1.84643
C          6.41116        0.18367        2.33200
C          7.00263       -1.38687        0.45546
H          8.18376       -1.82181        2.89374
H          6.72348       -2.09807        3.83526
H          7.15318       -3.19577        2.51554
H          5.91561        0.85600        1.63254
H          5.91990        0.28742        3.29920
H          7.44308        0.51750        2.43880
H          8.04881       -1.08328        0.48868
H          6.95918       -2.41249        0.08953
H          6.49380       -0.75274       -0.26936
C          3.65264        5.27351        1.05765
C          2.49767        4.84253        0.13703
C          1.20102        4.77967        0.96585
C          2.30562        5.88448       -0.98124
H          4.58488        5.36689        0.50146
H          3.44202        6.23553        1.52449
H          3.80750        4.53995        1.84873
H          0.36842        4.43788        0.35195
H          1.30830        4.10300        1.81312
H          0.94478        5.76253        1.36101
H          2.02272        6.85224       -0.56745
H          3.21924        6.02544       -1.55710
H          1.52174        5.57001       -1.66917
C          5.36729        3.12306       -3.98356
C          5.47960        2.06973       -2.86458
C          5.61311        0.68004       -3.51792
C          6.74141        2.34177       -2.02563
H          4.45811        2.97675       -4.56510
H          5.34677        4.13436       -3.57989
H          6.21555        3.05773       -4.66479
H          6.46801        0.65090       -4.19335
H          5.76328       -0.09574       -2.76759
H          4.72438        0.43195       -4.09738
H          6.83319        1.61384       -1.21989
H          7.63984        2.28188       -2.63963
H          6.70751        3.33361       -1.57588
H         -1.97735       -1.49817       -4.94382
H          2.53621        1.69106       -4.59210
H         -0.52748       -0.76808       -5.62959
H         -1.48514        0.11168       -4.43445
H          1.18697        0.99201       -5.48509
H          1.99123        0.06077       -4.21813
