111
-148.55584192
P         -2.23348       -2.15533       -1.32786
P          0.13601       -0.18718       -0.59796
C         -1.16595       -1.51422       -2.63920
C         -0.14515       -0.64558       -2.32005
C         -2.32421       -4.00093       -1.36676
C         -1.41086       -4.61738       -0.32875
C         -1.36893       -1.89232       -3.95076
H         -2.15861       -2.58661       -4.18823
C         -0.55506       -1.38233       -4.94734
H         -0.71374       -1.67382       -5.97274
C          0.45912       -0.49994       -4.62839
H          1.09211       -0.10116       -5.40397
C          0.66584       -0.13241       -3.31068
H          1.45686        0.55137       -3.04868
Pd        -1.43693       -1.33099        0.67076
Cl        -3.13430       -2.37244        1.69983
Cl        -0.51189       -0.47050        2.52335
C         -3.82325       -4.26961       -1.14391
C         -4.02793       -1.73886       -1.53581
H         -1.68971       -4.29178        0.67505
H         -1.46408       -5.70841       -0.34747
H         -0.37052       -4.32503       -0.49143
H         -4.00562       -4.37125       -0.06505
H         -4.10961       -5.23665       -1.58493
H         -4.33308       -1.27839       -0.58672
C         -4.69896       -3.11641       -1.71016
C         -4.26093       -0.79232       -2.69607
H         -2.02589       -4.30434       -2.37879
H         -4.87831       -3.28898       -2.78009
H         -5.69526       -3.11710       -1.24302
H         -5.30920       -0.49192       -2.76255
H         -3.65282        0.10968       -2.60777
H         -3.99668       -1.26564       -3.64269
C         -1.25000        4.06505        0.25834
C         -2.16285        3.10285       -0.24660
C         -1.68344        1.83568       -0.53829
C         -0.38790        1.48940       -0.25195
C          0.45252        2.37134        0.37633
C          0.04376        3.65943        0.67451
O         -1.60578        5.43908        0.29742
C         -3.65118        3.40610       -0.47861
H         -2.32200        1.09321       -0.98463
H          1.43988        2.03799        0.63970
C          1.00697        4.59987        1.41472
C          4.37096       -0.97270        0.89330
C          4.14493        0.05240       -0.06047
C          2.84762        0.27082       -0.49370
C          1.81502       -0.52604       -0.07021
C          2.05044       -1.59192        0.75844
C          3.32254       -1.86532        1.23191
O          5.63114       -1.07940        1.53956
C          5.27285        0.94701       -0.59897
H          2.62443        1.08773       -1.15746
H          1.21489       -2.20089        1.05644
C          3.53054       -3.08607        2.14129
C         -3.87214        3.74667       -1.95980
C         -4.50860        2.17553       -0.10620
C         -4.13902        4.56728        0.40709
C          0.23612        5.61554        2.27747
C          1.92082        3.79877        2.36998
C          1.88352        5.33680        0.39113
C         -1.31435        6.13441       -0.90807
H         -4.92188        3.96007       -2.15954
H         -3.28858        4.61777       -2.25166
H         -3.56934        2.91600       -2.59681
H         -4.33263        1.34037       -0.77979
H         -4.28830        1.84442        0.90835
H         -5.57099        2.41199       -0.15933
H         -3.64376        5.49959        0.14854
H         -5.21174        4.72253        0.29457
H         -3.93398        4.36070        1.45697
H          0.91917        6.23758        2.85535
H         -0.37074        6.27637        1.66312
H         -0.42727        5.10249        2.97293
H          2.61574        3.16150        1.82609
H          2.51811        4.46910        2.98756
H          1.32871        3.16946        3.03392
H          2.59682        5.99340        0.88865
H          2.44427        4.62819       -0.21808
H          1.27799        5.94432       -0.27801
H         -0.72594        7.02356       -0.68103
H         -0.75457        5.49308       -1.59001
H         -2.24138        6.44679       -1.38818
C          5.73563       -0.30855        2.73018
C          6.61142        0.18778       -0.64427
C          4.96495        1.40014       -2.04438
C          5.40144        2.19482        0.28795
C          3.29324       -2.67364        3.60203
C          2.53432       -4.21184        1.77955
C          4.94559       -3.66883        1.97554
H          6.51605       -0.72282       -1.23475
H          7.39481        0.80055       -1.08957
H          6.94201       -0.09435        0.35210
H          5.81729        1.92543       -2.47476
H          4.74398        0.54319       -2.68021
H          4.11760        2.08312       -2.08184
H          6.20204        2.84421       -0.06527
H          4.47554        2.76882        0.28082
H          5.61647        1.92585        1.31941
H          2.28402       -2.28341        3.73207
H          3.41644       -3.52328        4.27304
H          3.98960       -1.89759        3.91050
H          2.76423       -5.12341        2.33066
H          1.50956       -3.93969        2.02801
H          2.58036       -4.44338        0.71572
H          5.70663       -2.95878        2.28924
H          5.13583       -3.92354        0.93348
H          5.07043       -4.57106        2.57377
H          5.96550       -0.96336        3.57056
H          6.54582        0.41341        2.62938
H          4.80083        0.21873        2.92508
