111
-148.55959828
P         -2.57722       -1.81042       -1.15382
P          0.21351       -0.52358       -0.39803
C         -1.34063       -1.52692       -2.44798
C         -0.10683       -1.01703       -2.10501
C         -3.56272       -3.34756       -1.45144
C         -3.11946       -4.47233       -0.54145
C         -1.62690       -1.80910       -3.76834
H         -2.59993       -2.18873       -4.03364
C         -0.66936       -1.58718       -4.74305
H         -0.89180       -1.80722       -5.77443
C          0.56907       -1.08198       -4.39636
H          1.31355       -0.90680       -5.15547
C          0.84926       -0.79140       -3.07346
H          1.80495       -0.38063       -2.78908
Pd        -1.42225       -1.62462        0.82901
Cl        -3.27745       -2.24138        1.92872
Cl        -0.17403       -1.35285        2.67332
C         -5.00961       -2.87024       -1.22592
C         -3.93049       -0.54813       -1.11507
H         -3.70582       -5.37830       -0.71167
H         -2.06543       -4.71558       -0.69541
H         -3.24122       -4.19410        0.50641
H         -5.28012       -3.05126       -0.17640
H         -5.71087       -3.47525       -1.82069
H         -4.02325       -0.23602       -0.06610
C         -5.16932       -1.35623       -1.54607
C         -3.61373        0.63641       -2.00231
H         -3.41044       -3.61987       -2.50343
H         -5.31818       -1.22499       -2.62670
H         -6.07534       -0.94863       -1.07240
H         -2.70605        1.14557       -1.67357
H         -3.45420        0.31637       -3.03360
H         -4.42736        1.36537       -2.00168
C         -1.21937        3.77077        0.12496
C         -0.75630        3.32914       -1.14070
C         -0.30652        2.02497       -1.25745
C         -0.35011        1.16479       -0.19238
C         -0.86777        1.56366        1.01082
C         -1.36515        2.84253        1.18758
O         -1.50246        5.14652        0.33520
C         -0.70804        4.25073       -2.36874
H          0.08771        1.65996       -2.18948
H         -0.87065        0.85399        1.81961
C         -2.05305        3.19152        2.51653
C          4.61824       -0.70675        0.74154
C          4.11338        0.40001        0.00863
C          2.76244        0.42033       -0.29469
C          1.94687       -0.63411        0.02452
C          2.45483       -1.76017        0.61644
C          3.79559       -1.84502        0.95597
O          5.90985       -0.64112        1.32440
C          4.97444        1.57559       -0.48410
H          2.32599        1.27828       -0.77805
H          1.78248       -2.57311        0.83234
C          4.30478       -3.17080        1.54646
C         -1.88151        5.24679       -2.35647
C          0.62969        5.00611       -2.38171
C         -0.82330        3.43277       -3.67550
C         -3.13647        4.26667        2.31654
C         -2.76070        1.94594        3.10038
C         -1.00032        3.67761        3.52350
C         -0.40398        5.89109        0.84624
H         -1.88401        5.86059       -3.25687
H         -2.83273        4.71816       -2.30323
H         -1.82353        5.91671       -1.50203
H          1.46608        4.30797       -2.41220
H          0.70178        5.65830       -3.25170
H          0.74384        5.62001       -1.49163
H         -1.70036        2.78647       -3.65383
H         -0.91631        4.09294       -4.53754
H          0.05668        2.81309       -3.84220
H         -2.70706        5.20540        1.97615
H         -3.86390        3.94361        1.57250
H         -3.66804        4.46543        3.24679
H         -3.42428        1.49561        2.36254
H         -2.04800        1.18922        3.42434
H         -3.35993        2.21304        3.97034
H         -1.45977        3.92306        4.48060
H         -0.24959        2.90700        3.69712
H         -0.48618        4.56413        3.15963
H         -0.18360        6.72127        0.17528
H         -0.66041        6.30158        1.82263
H          0.47698        5.25463        0.93922
C          5.89751       -0.07279        2.62346
C          4.66000        2.82632        0.35366
C          6.48050        1.27040       -0.41038
C          4.64497        1.86578       -1.96565
C          5.84014       -3.27019        1.52793
C          3.79670       -3.31239        2.99095
C          3.76801       -4.34942        0.70440
H          4.89228        2.66474        1.40452
H          5.24054        3.68172        0.00913
H          3.60435        3.08733        0.28330
H          7.06665        2.07515       -0.85353
H          6.80950        1.15288        0.61930
H          6.71198        0.34812       -0.94207
H          3.61817        2.20430       -2.09428
H          5.29491        2.64522       -2.36257
H          4.78354        0.97135       -2.57240
H          6.17437       -4.25314        1.85906
H          6.22402       -3.10093        0.52252
H          6.29135       -2.53129        2.18580
H          4.11833       -4.25803        3.42639
H          4.17212       -2.50821        3.62064
H          2.70819       -3.27909        3.02566
H          4.17872       -5.29587        1.05519
H          4.04447       -4.23077       -0.34289
H          2.68362       -4.42707        0.76062
H          5.49985        0.93997        2.58500
H          5.27265       -0.66903        3.28624
H          6.91495       -0.04632        3.01414
