58
-89.86462248
P          1.87301       -0.24803        0.46122
C          1.83979        1.53524        0.72631
C          1.61877        2.33070       -0.37531
C          1.55141        3.70461       -0.23912
C          1.70919        4.27708        1.00684
C          1.93995        3.47934        2.10995
C          2.00859        2.10535        1.96851
H          2.19805        1.48305        2.82663
H          1.49886        1.86501       -1.34086
C          3.32337       -0.72508       -0.47976
C          3.39198       -1.99439       -1.00617
C          4.50041       -2.37255       -1.74310
C          5.53070       -1.47546       -1.94573
C          5.45612       -0.20251       -1.41524
C          4.34647        0.17305       -0.67970
H          4.27037        1.16498       -0.26445
H          2.57434       -2.68003       -0.84706
C          1.86262       -1.21175        2.03629
C          0.47946       -1.55356        2.57492
C         -0.48342       -0.37210        2.61214
P         -1.41244       -0.28046        1.02802
C         -2.17930        1.32887        0.78151
C         -3.41900        1.41140        0.18927
C         -3.99835        2.64821       -0.03010
C         -3.32659        3.79720        0.33756
C         -2.07596        3.71166        0.91595
C         -1.50105        2.47305        1.13417
H         -0.50922        2.39834        1.54630
H         -3.92174        0.50764       -0.11533
C         -2.64720       -1.58744        1.07436
C         -2.43640       -2.77037        0.40332
C         -3.38399       -3.77592        0.46639
C         -4.53358       -3.59272        1.20903
C         -4.73611       -2.40918        1.89088
C         -3.78662       -1.40500        1.82534
H         -3.92769       -0.47786        2.35835
H         -1.53562       -2.90095       -0.17463
Pd        -0.04547       -0.42187       -0.84242
Cl         1.26516       -0.14643       -2.64319
Cl        -1.96756       -0.79163       -1.94656
H         -1.23481       -0.47729        3.39870
H          0.04056        0.56579        2.79373
H          0.03053       -2.34852        1.96155
H          0.58076       -1.99337        3.57983
H          2.44520       -2.11871        1.85622
H          2.43011       -0.62846        2.76287
H          1.37252        4.32417       -1.10238
H          2.06754        3.92715        3.08188
H          4.55620       -3.36400       -2.16162
H          6.25839        0.49864       -1.57649
H         -4.96895        2.71377       -0.49361
H         -1.54249        4.60762        1.18777
H         -3.22518       -4.69946       -0.06572
H         -5.63127       -2.26722        2.47381
H          1.65454        5.34773        1.11820
H          6.39326       -1.76841       -2.52184
H         -3.77490        4.76196        0.16438
H         -5.27325       -4.37521        1.25754
