58
-89.86613595
P          1.66642        0.27492        0.78641
C          2.94496        1.50071        0.47803
C          3.96358        1.21275       -0.40165
C          4.93287        2.16259       -0.66941
C          4.87085        3.39893       -0.05791
C          3.84107        3.68832        0.81526
C          2.87294        2.73620        1.08043
H          2.05427        2.95849        1.74581
H          3.99051        0.24916       -0.88473
C          2.28588       -1.37031        0.41801
C          1.54830       -2.23618       -0.35407
C          2.01851       -3.51202       -0.60335
C          3.22910       -3.91318       -0.07477
C          3.96576       -3.04335        0.70502
C          3.48901       -1.76852        0.95507
H          4.04986       -1.08055        1.56817
H          0.59814       -1.91923       -0.74672
C          1.20726        0.30461        2.56151
C          0.20481       -0.78304        2.91773
C         -1.23195       -0.41884        2.58235
P         -1.63640       -0.37641        0.78741
C         -3.23529        0.43007        0.66023
C         -3.32528        1.78391        0.88911
C         -4.55099        2.41740        0.78574
C         -5.67652        1.68862        0.45504
C         -5.58049        0.32989        0.22716
C         -4.35365       -0.30058        0.33027
H         -4.26126       -1.35938        0.14970
H         -2.43572        2.34090        1.13867
C         -1.69214       -2.01888        0.05997
C         -1.86999       -2.11314       -1.30171
C         -1.88963       -3.35220       -1.91390
C         -1.73219       -4.49364       -1.15352
C         -1.55942       -4.39716        0.21332
C         -1.54025       -3.15528        0.82228
H         -1.40525       -3.07325        1.88790
H         -1.98152       -1.20838       -1.87756
Pd        -0.15189        0.80514       -0.55176
Cl         1.14451        2.17370       -1.77639
Cl        -1.86527        1.09245       -1.99026
H         -1.93958       -1.11746        3.03502
H         -1.47470        0.56752        2.98246
H          0.48282       -1.71640        2.40995
H          0.27664       -1.00589        3.99399
H          2.14406        0.18059        3.11050
H          0.81875        1.29360        2.80911
H          5.73047        1.93919       -1.35872
H          3.78692        4.65668        1.28501
H          1.43557       -4.19219       -1.20221
H          4.90928       -3.35663        1.12081
H         -4.62509        3.47842        0.95886
H         -6.45815       -0.23824       -0.03401
H         -2.02419       -3.42482       -2.98056
H         -1.43632       -5.28879        0.80590
H          5.62334        4.14153       -0.26773
H          3.59777       -4.90741       -0.26791
H         -6.63126        2.18184        0.37180
H         -1.74460       -5.46163       -1.62738
