87
-129.18207211
P         -1.69595       -0.30567        0.20862
P          1.56128        0.30479       -0.20885
C         -1.43458        1.08182       -0.92622
C          1.14542       -0.62179       -1.69088
C         -0.64570        1.05228       -2.07401
C         -0.47605        2.24123       -2.80959
C         -1.11074        3.39765       -2.38989
C         -1.88574        3.40952       -1.25120
C         -2.03764        2.24860       -0.51798
C          1.87818       -1.72767       -2.04518
C          1.55977       -2.42617       -3.19320
C          0.50380       -2.01004       -3.97789
C         -0.24997       -0.89905       -3.63526
C          0.08424       -0.18007       -2.47036
Cl         1.68204        1.20927        2.87159
Cl        -1.03842       -0.53106        3.41024
H         -2.36243        4.32033       -0.92793
H         -2.62558        2.24940        0.38791
H          2.70288       -2.04151       -1.42730
H          2.13132       -3.29632       -3.47158
H         -0.97752        4.30206       -2.95904
H          0.24852       -2.55753       -4.86927
C         -0.86259       -4.51827       -1.28411
C         -0.30841       -4.09581       -0.08385
C         -0.58352       -2.80632        0.35505
C         -1.37724       -1.96765       -0.39374
C         -1.95448       -2.40843       -1.56083
C         -1.69139       -3.68800       -2.01243
H         -0.64566       -5.51105       -1.63994
C          0.58112       -4.99528        0.69910
H         -0.21143       -2.47099        1.30824
H         -2.59520       -1.74582       -2.11964
H         -2.12537       -4.03250       -2.93673
C         -6.09885       -0.16663        1.36710
C         -5.14848       -0.33014        2.35517
C         -3.80945       -0.36790        2.02133
C         -3.42608       -0.24485        0.70786
C         -4.37159       -0.08402       -0.27947
C         -5.72472       -0.03298        0.03714
H         -7.14452       -0.14210        1.62273
H         -5.44996       -0.42934        3.38511
H         -3.05565       -0.49111        2.77942
H         -4.05727        0.01117       -1.30598
C         -6.74745        0.12009       -1.03320
C          5.09649       -1.65723        1.89690
C          5.21087       -0.37021        1.41077
C          4.14033        0.22010        0.76662
C          2.96763       -0.48019        0.60685
C          2.85168       -1.76201        1.09212
C          3.91350       -2.36867        1.75145
H          5.92896       -2.11938        2.39955
H          6.13117        0.17604        1.53763
H          4.21193        1.22913        0.39501
H          1.93035       -2.30036        0.95569
C          3.78505       -3.75842        2.26787
C          2.63050        4.56749       -1.36325
C          3.16506        3.50540       -2.06589
C          2.84486        2.20947       -1.70575
C          2.00139        1.98946       -0.64214
C          1.47791        3.04433        0.06791
C          1.77382        4.35303       -0.29225
H          2.87728        5.57760       -1.64254
H          3.82629        3.68532       -2.89762
H          3.24004        1.36760       -2.25252
H          0.83477        2.85393        0.91009
C          1.20976        5.49244        0.48069
Pd         0.10961        0.19546        1.63388
C          0.38418        2.29096       -4.02488
C         -1.39669       -0.49722       -4.49574
H         -0.22233        2.28777       -4.93129
H          0.99321        3.19601       -4.03250
H          1.06433        1.43984       -4.06941
H         -2.02896        0.24044       -4.00013
H         -1.04626       -0.06564       -5.43412
H         -2.02243       -1.35801       -4.73604
H          0.23023       -6.02736        0.65732
H          1.59842       -4.96935        0.30630
H          0.61498       -4.70006        1.74867
H         -7.63408        0.63488       -0.66030
H         -6.35603        0.69965       -1.87061
H         -7.05813       -0.85387       -1.41390
H          3.86549       -4.48306        1.45649
H          4.56407       -3.98379        2.99744
H          2.82186       -3.90352        2.75894
H          1.84396        5.73179        1.33533
H          1.12502        6.38642       -0.13874
H          0.21358        5.25468        0.85693
