45
-71.82029275
C          0.38277        1.48165        3.18154
P         -0.16197        0.76244        1.59791
P         -0.12386        0.79837       -1.59015
C          0.44988        1.54707       -3.14974
Cl         2.92314       -0.04547        1.67700
H         -0.45273        1.54073        3.87313
H          1.23601        0.93480       -3.58235
Cl         2.97063        0.02536       -1.61480
C         -1.31274        1.82100        0.69137
C         -1.29656        1.83635       -0.68803
C         -2.20578        2.60684       -1.38335
C         -3.12986        3.37132       -0.69322
C         -3.14602        3.35598        0.68776
C         -2.23816        2.57611        1.38219
H         -2.19326        2.60062       -2.46128
H         -3.83966        3.97519       -1.23428
H         -3.86846        3.94785        1.22535
H         -2.25088        2.54592        2.45972
Pd         1.48056        0.40927        0.01896
H          0.84213        2.54202       -2.95969
H          0.78134        2.47864        3.01702
H         -0.37195        1.61625       -3.85661
C         -1.72296       -3.43370       -1.98844
C         -0.36644       -3.19332       -2.08717
C          0.11020       -1.89926       -1.98942
C         -0.76950       -0.85970       -1.79544
C         -2.12114       -1.09266       -1.69290
C         -2.60169       -2.38594       -1.79283
H         -2.09656       -4.44208       -2.05998
H          0.32001       -4.01105       -2.23281
H          1.16678       -1.68805       -2.04045
H         -2.79086       -0.26552       -1.52075
H         -3.65915       -2.57550       -1.70892
C         -1.79558       -3.46489        1.89529
C         -2.66530       -2.40582        1.72153
C         -2.17396       -1.11462        1.65164
C         -0.82067       -0.89506        1.76207
C          0.04991       -1.94588        1.93516
C         -0.43740       -3.23787        2.00247
H         -2.17756       -4.47152        1.94351
H         -3.72413       -2.58471        1.63161
H         -2.83661       -0.27832        1.49726
H          1.10780       -1.74431        1.99622
H          0.24199       -4.06421        2.13166
H          1.15851        0.85937        3.61860
