111
-148.55691123
P         -2.51155       -2.06800       -0.94563
P          0.15175       -0.40174       -0.50145
C         -1.37130       -1.80343       -2.33035
C         -0.19833       -1.10988       -2.12277
C         -3.31539       -3.73352       -1.00714
C         -2.75217       -4.65249        0.05488
C         -1.67613       -2.27798       -3.59000
H         -2.60415       -2.80123       -3.75234
C         -0.79661       -2.06504       -4.63759
H         -1.03329       -2.43624       -5.62138
C          0.38173       -1.37544       -4.42499
H          1.06532       -1.20814       -5.24100
C          0.67963       -0.89179       -3.16367
H          1.58803       -0.33840       -2.98303
Pd        -1.33203       -1.45112        0.93067
Cl        -3.03361       -2.12140        2.22885
Cl        -0.05565       -0.79236        2.66293
C         -4.81014       -3.40019       -0.84021
C         -4.00371       -0.97676       -1.00580
H         -3.22879       -5.63517        0.02656
H         -1.67593       -4.79276       -0.07148
H         -2.91300       -4.23732        1.05096
H         -5.07263       -3.48415        0.22342
H         -5.43049       -4.14794       -1.35734
H         -4.13089       -0.57929        0.01019
C         -5.13756       -1.96377       -1.33973
C         -3.82632        0.14652       -2.00396
H         -3.12283       -4.13769       -2.00899
H         -5.28422       -1.97874       -2.42855
H         -6.09045       -1.60877       -0.91845
H         -3.63553       -0.24913       -3.00329
H         -4.71716        0.77642       -2.05968
H         -2.97927        0.78140       -1.73578
C         -1.17689        3.95121       -0.27569
C         -1.01640        3.33716       -1.54698
C         -0.59284        2.01888       -1.58995
C         -0.41303        1.29717       -0.43927
C         -0.69249        1.84861        0.78275
C         -1.11595        3.15960        0.90146
O         -1.31258        5.35973       -0.17589
C         -1.29238        4.04899       -2.88221
H         -0.38993        1.54106       -2.53267
H         -0.56295        1.23488        1.65774
C         -1.50585        3.65887        2.30229
C          4.48011       -0.76154        0.86557
C          3.75941        0.43820        1.09295
C          2.44552        0.50199        0.66314
C          1.86958       -0.53519       -0.02200
C          2.59062       -1.65912       -0.32905
C          3.91407       -1.78538        0.06233
O          5.74962       -0.95301        1.47286
C          4.35555        1.64534        1.83358
H          1.84273        1.36685        0.87641
H          2.09851       -2.44495       -0.87574
C          4.70264       -3.03483       -0.36087
C         -2.09082        5.35116       -2.69727
C          0.04213        4.35944       -3.57974
C         -2.13683        3.12951       -3.79214
C         -2.42578        2.61652        2.97748
C         -0.23667        3.83532        3.15272
C         -2.28432        4.98472        2.25551
C         -0.06444        6.02307       -0.06284
H         -3.00911        5.16316       -2.14203
H         -1.51490        6.09211       -2.14789
H         -2.35790        5.78834       -3.65909
H          0.60882        3.44650       -3.76025
H         -0.12447        4.84652       -4.54018
H          0.65920        5.01860       -2.97206
H         -3.06653        2.84941       -3.29809
H         -2.39213        3.63430       -4.72351
H         -1.60491        2.21639       -4.05396
H         -1.90882        1.67573        3.15891
H         -2.78373        2.97981        3.94032
H         -3.29378        2.40776        2.35278
H         -0.48619        4.16843        4.15973
H          0.30965        2.89628        3.23643
H          0.43318        4.57138        2.71212
H         -1.66250        5.79389        1.87997
H         -3.15097        4.89831        1.60102
H         -2.63373        5.27051        3.24737
H          0.54196        5.83148       -0.94660
H         -0.23452        7.09576        0.03169
H          0.47184        5.66444        0.81437
C          5.68923       -1.55686        2.75903
C          5.87048        1.75795        1.58586
C          3.71806        2.96256        1.33286
C          4.07071        1.50553        3.33678
C          6.19772       -2.71401       -0.54048
C          4.52019       -4.13391        0.69668
C          4.19178       -3.56709       -1.71933
H          6.08118        1.81673        0.51857
H          6.28035        2.64816        2.06232
H          6.40310        0.89780        1.98342
H          4.22785        3.82580        1.76009
H          3.78471        3.03778        0.24782
H          2.66986        3.03905        1.61789
H          4.52118        0.60218        3.74095
H          4.46617        2.35659        3.89057
H          2.99800        1.45074        3.52128
H          6.65375       -2.40795        0.39768
H          6.74437       -3.58394       -0.90366
H          6.33301       -1.90473       -1.25723
H          4.88857       -3.81187        1.66766
H          3.46661       -4.38813        0.81018
H          5.05795       -5.03917        0.41602
H          4.82971       -4.37185       -2.08406
H          4.18903       -2.77634       -2.46916
H          3.18306       -3.96989       -1.64177
H          6.12819       -0.88777        3.49888
H          4.65444       -1.77021        3.03018
H          6.26311       -2.48341        2.75533
