171
-217.84698173
P         -1.59343        0.32540       -0.43240
P          1.61890       -0.42385       -0.16166
C         -0.77460        1.28608       -1.70902
C          1.00814       -1.39714       -1.54537
C          0.07852        0.66608       -2.61421
C          0.74811        1.45879       -3.56629
C          0.52104        2.82500       -3.58933
C         -0.34134        3.41804       -2.69156
C         -0.98455        2.64266       -1.74686
C          1.21974       -2.75419       -1.51608
C          0.70540       -3.56076       -2.51181
C         -0.03861       -2.99888       -3.52740
C         -0.26591       -1.63361       -3.57541
C          0.28213       -0.80781       -2.57507
Cl         1.35533        0.19681        2.99020
Cl        -1.80945       -0.49732        2.78270
C         -1.09138       -1.07233       -4.68007
C          1.67409        0.85124       -4.56117
H         -0.51388        4.48124       -2.72747
H         -1.65656        3.09714       -1.03701
H          1.78873       -3.18667       -0.70920
H          0.87899       -4.62418       -2.48941
H          1.03003        3.42650       -4.32350
H         -0.45822       -3.62465       -4.29704
C         -3.78103       -3.30350       -2.00591
C         -2.84112       -3.47415       -0.99742
C         -2.17825       -2.34604       -0.53116
C         -2.43383       -1.11506       -1.08153
C         -3.34939       -0.96542       -2.09419
C         -4.05118       -2.06515       -2.57460
H         -4.33436       -4.15956       -2.34522
H         -1.46203       -2.41557        0.26904
H         -3.51648        0.01936       -2.49656
C         -4.50543        2.89394        1.91695
C         -3.14270        3.12410        2.06179
C         -2.27306        2.34927        1.30548
C         -2.75084        1.35917        0.48293
C         -4.09938        1.12676        0.37651
C         -5.00825        1.90041        1.08630
H         -5.19992        3.50042        2.46709
H         -1.21004        2.50426        1.36579
H         -4.43778        0.32965       -0.26033
C          4.48048       -2.78061        2.45417
C          3.14084       -3.15083        2.43654
C          2.27723       -2.43716        1.61426
C          2.74511       -1.39723        0.84974
C          4.07103       -1.04456        0.88343
C          4.97030       -1.73132        1.68602
H          5.15094       -3.31833        3.09776
H          1.22651       -2.66875        1.58450
H          4.40737       -0.21102        0.29225
C          3.78241        3.41071       -1.19089
C          2.76810        3.44578       -0.24157
C          2.09422        2.26292        0.02942
C          2.42320        1.10566       -0.63096
C          3.42836        1.08569       -1.56659
C          4.13552        2.24559       -1.86139
H          4.33233        4.30791       -1.40376
H          1.32401        2.23660        0.78110
H          3.66812        0.15169       -2.04581
Pd        -0.14008       -0.10250        1.33786
C         -1.40590       -4.86033        0.57585
C         -2.59505       -4.86746       -0.40382
C         -2.28131       -5.86426       -1.53580
C         -3.85581       -5.32015        0.35302
H         -1.21346       -5.86268        0.95811
H         -0.49864       -4.51213        0.08294
H         -1.60461       -4.21545        1.43156
H         -1.41961       -5.53170       -2.11327
H         -2.05690       -6.85210       -1.13378
H         -3.12205       -5.96930       -2.22011
H         -3.71249       -6.30502        0.79716
H         -4.09595       -4.61979        1.15282
H         -4.71613       -5.37411       -0.31336
C         -4.89221       -2.94249       -4.78226
C         -5.14627       -1.93598       -3.64337
C         -5.18343       -0.51849       -4.24748
C         -6.51087       -2.23040       -2.99474
H         -5.64700       -2.84403       -5.56233
H         -3.91705       -2.77766       -5.23798
H         -4.92360       -3.96980       -4.42207
H         -5.42680        0.22631       -3.49014
H         -4.22399       -0.25689       -4.69298
H         -5.94100       -0.45051       -5.02810
H         -6.54207       -3.24012       -2.58651
H         -6.70827       -1.53521       -2.17949
H         -7.31767       -2.13691       -3.72145
C         -1.22233        3.84452        3.54528
C         -2.60744        4.22929        2.98397
C         -3.55317        4.45262        4.18149
C         -2.49003        5.53226        2.17704
H         -0.46843        3.80995        2.76147
H         -0.88578        4.57175        4.28390
H         -1.25753        2.86716        4.02635
H         -3.73357        3.51709        4.71070
H         -3.12166        5.16048        4.88910
H         -4.51299        4.85838        3.86468
H         -3.46469        5.84382        1.80188
H         -2.08876        6.33872        2.79053
H         -1.83195        5.39831        1.31930
C         -7.06685        1.28263        2.37416
C         -6.52358        1.67438        0.98812
C         -6.86585        0.54860       -0.00790
C         -7.20361        2.96996        0.50838
H         -8.13969        1.09500        2.33448
H         -6.57831        0.37821        2.73626
H         -6.89248        2.07170        3.10472
H         -7.94418        0.40503       -0.07484
H         -6.50198        0.78734       -1.00706
H         -6.42656       -0.39882        0.30400
H         -6.80915        3.27494       -0.46076
H         -8.27970        2.83058        0.40615
H         -7.03953        3.78775        1.20899
C          1.15140       -4.57515        3.13245
C          2.64802       -4.28146        3.35046
C          2.85501       -3.86576        4.81798
C          3.44202       -5.56703        3.05331
H          0.54072       -3.70244        3.36334
H          0.96199       -4.86989        2.10109
H          0.81782       -5.38914        3.77584
H          3.90832       -3.69080        5.03409
H          2.31211       -2.94604        5.03546
H          2.49738       -4.63902        5.49759
H          3.08989       -6.39363        3.67023
H          3.33016       -5.85472        2.00803
H          4.50459       -5.43404        3.25245
C          6.51886        0.17364        2.18708
C          6.43992       -1.28856        1.70842
C          7.02472       -1.39877        0.28788
C          7.28440       -2.16163        2.65573
H          5.97927        0.84057        1.51543
H          6.08275        0.27684        3.18044
H          7.55311        0.51395        2.23414
H          8.07388       -1.10405        0.27345
H          6.95587       -2.42282       -0.07852
H          6.48948       -0.75727       -0.41101
H          8.32492       -1.83707        2.65584
H          6.91865       -2.09559        3.68023
H          7.26476       -3.20680        2.34748
C          0.93612        5.08724        0.22845
C          2.39711        4.71625        0.53551
C          3.29458        5.90721        0.14879
C          2.56197        4.45194        2.04443
H          0.62878        5.96637        0.79442
H          0.81147        5.30774       -0.83100
H          0.26174        4.27054        0.47985
H          3.01921        6.79756        0.71400
H          4.34230        5.69337        0.35945
H          3.19549        6.14576       -0.91002
H          2.30748        5.33752        2.62640
H          1.92058        3.63794        2.37886
H          3.59123        4.17898        2.27619
C          6.60730        2.58663       -2.04360
C          5.32581        2.25609       -2.83118
C          5.09777        3.32148       -3.91991
C          5.51639        0.88852       -3.51614
H          6.54033        3.56766       -1.57454
H          6.77600        1.85154       -1.25677
H          7.47885        2.58733       -2.69794
H          5.91573        3.32312       -4.64016
H          4.17250        3.13018       -4.46176
H          5.03243        4.32077       -3.49154
H          4.62883        0.60207       -4.07854
H          6.35343        0.91901       -4.21354
H          5.72754        0.10854       -2.78508
H         -2.00310       -1.65465       -4.81252
H          1.16104        0.66022       -5.50454
H         -0.54418       -1.08852       -5.62363
H         -1.38747       -0.04241       -4.47686
H          2.08054       -0.09438       -4.19973
H          2.51367        1.51477       -4.76902
