75
-122.81776849
P          1.78265       -0.56971       -0.02069
C          1.66557       -1.57122       -1.50942
C          1.66923       -0.98755       -2.75544
C          1.66771       -1.78113       -3.88745
C          1.66330       -3.15626       -3.76272
C          1.65713       -3.73841       -2.51061
C          1.66079       -2.94122       -1.37997
H          1.67349       -3.38027       -0.39470
H          1.65066       -4.81151       -2.41301
H          1.65772       -3.77628       -4.64426
H          1.66478       -1.32612       -4.86422
H          1.66434        0.08673       -2.83672
C          3.08692       -1.31611        0.97221
C          4.36257       -1.34994        0.45633
C          5.38344       -1.93755        1.18158
C          5.11627       -2.49636        2.41543
C          3.83186       -2.47487        2.92143
C          2.81353       -1.88727        2.19374
H          1.80661       -1.86942        2.57788
H          3.62214       -2.91401        3.88293
H          5.91066       -2.95316        2.98284
H          6.38397       -1.96114        0.78203
H          4.55169       -0.92701       -0.51803
C          2.20050        1.13188       -0.44462
C          3.35689        1.77557       -0.07031
C          3.52979        3.12723       -0.33493
C          2.50501        3.82279       -0.97657
C          1.33357        3.19534       -1.33802
C          1.18363        1.82257       -1.08492
O          0.00238        1.14532       -1.42616
C         -1.18751        1.81091       -1.09263
C         -1.34840        3.18256       -1.34497
C         -2.52692        3.79905       -0.98779
C         -3.55363        3.09077       -0.36355
C         -3.36443        1.74344       -0.08734
C         -2.20084        1.11043       -0.45745
P         -1.77242       -0.58818       -0.03292
C         -3.07296       -1.32871        0.96917
C         -4.34434       -1.38653        0.44482
C         -5.36502       -1.96837        1.17498
C         -5.10202       -2.49698        2.42291
C         -3.82200       -2.45072        2.93828
C         -2.80386       -1.86895        2.20571
H         -1.80063       -1.83260        2.59780
H         -3.61558       -2.86616        3.91096
H         -5.89618       -2.94943        2.99412
H         -6.36209       -2.01083        0.76840
H         -4.53024       -0.98595       -0.53961
C         -1.66433       -1.58825       -1.52323
C         -1.61774       -0.99989       -2.76618
C         -1.62459       -1.78782       -3.90208
C         -1.67760       -3.16251       -3.78446
C         -1.72038       -3.74980       -2.53547
C         -1.71610       -2.95800       -1.40105
H         -1.76683       -3.40069       -0.41866
H         -1.75886       -4.82271       -2.44331
H         -1.67857       -3.77838       -4.66892
H         -1.58255       -1.32891       -4.87613
H         -1.56535        0.07345       -2.84183
Pd        -0.00744        0.00327        1.44630
Cl        -1.61896        0.99201        2.66478
Cl         1.65182        0.94601        2.64412
H         -4.11994        1.19747        0.44894
C         -4.79932        3.78056        0.06487
H         -4.70446        4.14782        1.08748
H         -5.65481        3.10483        0.02770
H         -5.02051        4.63170       -0.58037
H         -2.64571        4.85073       -1.17979
S         -0.00956        4.07269       -2.09888
H          2.61952        4.87271       -1.18030
C          4.79015        3.81416        0.05467
H          4.11987        1.23424        0.46005
H          5.14324        3.46095        1.02445
H          5.57560        3.62794       -0.67886
H          4.64630        4.89286        0.12789
