105
-153.06809041
Cl        -0.95423        3.13427       -2.28521
Pd         0.02105        1.74954       -0.80701
P          0.92066        0.54034        1.02749
N         -0.06108       -0.79804        1.61746
C         -0.18941       -2.17530        1.39280
C          0.15244       -2.82976        0.17980
C         -0.18380       -4.18889        0.00344
C          0.00502       -4.82700       -1.35315
C         -0.87858       -6.06369       -1.56955
C         -0.72797       -7.03487       -0.39488
C         -1.13972       -6.36975        0.92952
C         -0.76411       -4.91113        1.04912
C         -1.05925       -4.25814        2.23900
C         -0.79981       -2.92213        2.39917
H         -1.06655       -2.42518        3.31597
H         -1.52406       -4.81393        3.03589
H         -2.22549       -6.45511        1.05834
H         -1.30947       -7.95087       -0.57058
H         -1.92708       -5.75083       -1.65100
H         -0.19265       -4.08048       -2.13271
C          0.65505       -2.05909       -0.98235
C         -0.24736       -1.18578       -1.63644
C          0.17713       -0.50895       -2.77934
C          1.44400       -0.69365       -3.27052
C          2.34017       -1.56146       -2.65512
C          3.69821       -1.75002       -3.29412
C          4.65585       -2.70662       -2.55559
C          3.89571       -3.81308       -1.81563
C          2.90605       -3.18743       -0.82499
C          1.94547       -2.24847       -1.50463
H          2.36617       -3.95696       -0.26237
H          4.58623       -4.50053       -1.30700
H          5.25195       -2.13933       -1.83074
H          4.16605       -0.76404       -3.40836
H          1.75731       -0.16417       -4.15429
H         -0.50402        0.16839       -3.26320
N         -1.52868       -0.99749       -1.11032
P         -2.05118        0.64945       -0.76075
C         -2.55926        0.81559        0.94772
C         -3.23822       -0.20720        1.56823
C         -3.46777       -0.14722        2.93111
C         -3.02119        0.93590        3.67579
C         -2.37760        1.97672        3.02187
C         -2.14322        1.91457        1.66143
H         -1.61461        2.71023        1.16065
H         -2.03890        2.82693        3.58904
C         -3.26026        0.99960        5.14396
H         -3.98579       -0.95015        3.42737
H         -3.55613       -1.06292        0.99406
C         -3.29607        1.24361       -1.89479
C         -3.50414        0.55636       -3.06587
C         -4.44700        1.01158       -3.97029
C         -5.17875        2.16198       -3.70637
C         -4.95834        2.83574       -2.51185
C         -4.01536        2.37866       -1.60881
H         -3.83184        2.90464       -0.68530
H         -5.52737        3.72340       -2.29437
C         -6.20770        2.64116       -4.67037
H         -4.61892        0.47575       -4.88810
H         -2.93108       -0.33589       -3.26159
H         -1.75406       -1.54415       -0.29154
H         -0.83283       -0.34111        2.08927
C          0.97079        1.68722        2.41539
C          1.17406        3.03740        2.25948
C          1.16107        3.87275        3.35938
C          0.94541        3.36204        4.63182
C          0.76818        1.99341        4.77805
C          0.77891        1.16181        3.67237
H          0.62517        0.10061        3.78475
H          0.61522        1.58314        5.76159
C          0.94635        4.25820        5.82090
H          1.32036        4.93036        3.23582
H          1.35259        3.43396        1.27582
C          2.60487       -0.03624        0.82593
C          3.06608       -0.92040        1.77322
C          4.38394       -1.34357        1.74113
C          5.24602       -0.88795        0.75336
C          4.76478        0.01183       -0.18868
C          3.45197        0.44093       -0.14530
H          3.09444        1.17423       -0.84655
H          5.42799        0.38600       -0.94970
C          6.65881       -1.35705        0.71708
H          4.74842       -2.03685        2.47974
H          2.38999       -1.27558        2.53523
Cl         1.88035        3.00331       -0.73961
H         -0.70302       -6.91277        1.77738
H         -0.64112       -6.55769       -2.52239
H          0.31803       -7.36037       -0.32984
H          1.05558       -5.11064       -1.47596
H          3.34566       -4.42434       -2.54178
H          3.46156       -2.62455       -0.07065
H          3.54044       -2.11431       -4.31649
H          5.38660       -3.13960       -3.25290
H         -2.47827        1.57244        5.64469
H         -4.21771        1.47515        5.36065
H         -3.27163        0.00156        5.58432
H         -7.16271        2.14343       -4.49685
H         -6.36622        3.71628       -4.57602
H         -5.90516        2.44102       -5.69916
H          0.60101        5.25946        5.55959
H          0.28850        3.87533        6.60246
H          1.95017        4.34647        6.23854
H          7.18658       -0.96607       -0.15384
H          7.19821       -1.03224        1.60785
H          6.70537       -2.44620        0.67303
