171
-217.84484431
P         -1.59083        0.35967       -0.48923
P          1.60759       -0.37087       -0.22680
C         -0.79817        1.34270       -1.76115
C          1.03034       -1.32810       -1.63182
C          0.07851        0.74844       -2.66135
C          0.74978        1.56705       -3.59041
C          0.48666        2.92679       -3.60860
C         -0.41163        3.49021       -2.72703
C         -1.04606        2.69277       -1.79474
C          1.27311       -2.68031       -1.63960
C          0.77936       -3.46996       -2.65879
C          0.02530       -2.89611       -3.66006
C         -0.23176       -1.53498       -3.67014
C          0.29884       -0.72457       -2.64845
Cl         1.28100        0.21150        3.01292
Cl        -1.85256       -0.59359        2.66832
C         -1.04949       -0.95181       -4.76826
C          1.73148        1.00121       -4.55620
H         -0.61351        4.54834       -2.76069
H         -1.73858        3.12398       -1.08962
H          1.85262       -3.12216       -0.84560
H          0.97719       -4.52939       -2.66617
H          0.99750        3.54697       -4.32580
H         -0.37463       -3.50909       -4.45015
C         -3.81784       -3.25514       -2.04520
C         -2.81473       -3.43621       -1.10115
C         -2.14096       -2.31054       -0.64521
C         -2.44786       -1.06896       -1.14270
C         -3.42862       -0.90787       -2.09042
C         -4.15077       -2.00291       -2.54920
H         -4.35997       -4.11827       -2.38240
H         -1.37340       -2.39136        0.10477
H         -3.64083        0.08130       -2.46098
C         -4.38536        2.75571        2.17186
C         -3.02679        3.04967        2.18635
C         -2.19876        2.34110        1.32585
C         -2.70963        1.36534        0.50556
C         -4.05314        1.08416        0.51059
C         -4.92113        1.77471        1.34559
H         -5.03985        3.29465        2.82919
H         -1.13844        2.52950        1.32005
H         -4.42651        0.30342       -0.12819
C          4.34386       -2.78741        2.47498
C          3.01169       -3.16932        2.35963
C          2.19670       -2.43970        1.50444
C          2.69260       -1.36114        0.81549
C          4.00638       -0.98991        0.95345
C          4.86311       -1.69917        1.78306
H          4.98998       -3.34568        3.12446
H          1.15908       -2.70356        1.38838
H          4.36691       -0.12888        0.41867
C          3.86004        3.42234       -1.20557
C          2.80157        3.48728       -0.30715
C          2.09187        2.31999       -0.05832
C          2.44518        1.14581       -0.67493
C          3.49686        1.09572       -1.55631
C          4.23017        2.24209       -1.83902
H          4.42878        4.30969       -1.40960
H          1.26564        2.31844        0.63137
H          3.74921        0.14939       -2.00417
Pd        -0.14039       -0.12672        1.29439
C         -1.29553       -4.83009        0.38570
C         -2.50993       -4.84055       -0.56271
C         -2.19835       -5.78657       -1.73755
C         -3.73407       -5.35867        0.21260
H         -1.06910       -5.83705        0.73579
H         -0.41102       -4.44725       -0.12207
H         -1.48593       -4.21249        1.26313
H         -1.36109       -5.40921       -2.32341
H         -1.93706       -6.78163       -1.37784
H         -3.05331       -5.88935       -2.40444
H         -3.54620       -6.35144        0.62112
H         -3.97446       -4.69195        1.04059
H         -4.61069       -5.42140       -0.43132
C         -6.05567       -3.10619       -3.83134
C         -5.29758       -1.79421       -3.55035
C         -4.73166       -1.26296       -4.87836
C         -6.29615       -0.77381       -2.97220
H         -5.39927       -3.85154       -4.28000
H         -6.47529       -3.51994       -2.91447
H         -6.87961       -2.93555       -4.52417
H         -4.18948       -0.32959       -4.73089
H         -4.04858       -1.98661       -5.32147
H         -5.53102       -1.07549       -5.59512
H         -6.67190       -1.10792       -2.00524
H         -5.82901        0.20037       -2.83543
H         -7.14865       -0.64092       -3.63806
C         -1.71123        5.17856        2.33883
C         -2.40796        4.07255        3.14965
C         -1.37792        3.35664        4.04516
C         -3.47094        4.72527        4.05378
H         -2.42022        5.68081        1.68097
H         -1.26881        5.92698        2.99605
H         -0.91646        4.76617        1.72129
H         -0.57599        2.91511        3.45512
H         -0.92686        4.05005        4.75450
H         -1.85203        2.55413        4.60967
H         -4.21540        5.25828        3.46264
H         -3.98053        3.97830        4.66212
H         -3.01203        5.44477        4.73181
C         -6.59436       -0.08646        1.55748
C         -6.41691        1.42784        1.33017
C         -7.00751        1.82007       -0.03516
C         -7.18868        2.17551        2.43460
H         -7.65017       -0.35408        1.59449
H         -6.13480       -0.66775        0.75922
H         -6.13545       -0.38964        2.49827
H         -8.06825        1.57553       -0.08822
H         -6.89696        2.89010       -0.20997
H         -6.50102        1.29696       -0.84451
H         -7.13869        3.25437        2.28920
H         -8.24141        1.89310        2.42914
H         -6.78757        1.93927        3.42007
C          2.06364       -5.47317        2.13555
C          2.41719       -4.35553        3.13169
C          1.14560       -3.89776        3.87431
C          3.40763       -4.91415        4.17146
H          1.61957       -6.32744        2.64621
H          1.35381       -5.12073        1.38911
H          2.95432       -5.81728        1.61018
H          0.73011       -4.70813        4.47282
H          1.36896       -3.06488        4.54061
H          0.37190       -3.57054        3.18137
H          2.95477       -5.72744        4.73845
H          4.30260       -5.30933        3.69149
H          3.70640       -4.14189        4.88012
C          6.99602       -1.31961        0.52302
C          6.32464       -1.24592        1.90710
C          7.11734       -2.13361        2.88519
C          6.36194        0.20540        2.42272
H          8.03983       -1.01107        0.57806
H          6.96392       -2.33679        0.13314
H          6.49437       -0.67146       -0.19442
H          8.15087       -1.79618        2.96244
H          6.68389       -2.09968        3.88456
H          7.13359       -3.17029        2.54934
H          7.38857        0.55005        2.54502
H          5.86322        0.88506        1.73258
H          5.86133        0.28326        3.38756
C          1.08455        5.29852       -0.24077
C          2.39118        4.79206        0.39013
C          3.47025        5.88207        0.23894
C          2.17939        4.53528        1.89582
H          0.73544        6.20608        0.25136
H          1.23049        5.52133       -1.29741
H          0.30102        4.54611       -0.16536
H          3.19203        6.78002        0.79060
H          4.42935        5.53755        0.62543
H          3.60000        6.16861       -0.80433
H          1.92927        5.45899        2.41736
H          1.37011        3.82944        2.07359
H          3.08342        4.12708        2.34708
C          5.64693        0.84662       -3.42853
C          5.46179        2.22093       -2.75549
C          6.71432        2.52411       -1.91273
C          5.30941        3.28687       -3.85720
H          5.81352        0.06490       -2.68783
H          4.77384        0.57837       -4.02226
H          6.50966        0.85552       -4.09451
H          7.61389        2.50211       -2.52759
H          6.64889        3.50823       -1.44985
H          6.83060        1.78861       -1.11696
H          5.24985        4.28963       -3.43629
H          6.15912        3.26506       -4.53938
H          4.40566        3.11572       -4.44054
H         -1.55822       -0.04309       -4.44332
H          2.04938       -0.00033       -4.26338
H         -1.81098       -1.65748       -5.10100
H         -0.42780       -0.70365       -5.62924
H          2.62305        1.62605       -4.61145
H          1.30394        0.94225       -5.55798
