58
-89.86752044
P          1.67846        0.22041        0.78858
C          2.91587        1.51640        0.67829
C          4.19867        1.21715        0.28040
C          5.14405        2.22318        0.19527
C          4.79588        3.52212        0.50961
C          3.50706        3.81721        0.90860
C          2.56367        2.80858        0.99364
H          1.55068        3.02412        1.29571
H          4.45404        0.19913        0.03429
C          2.25627       -1.28447       -0.00838
C          2.46372       -2.44923        0.69561
C          2.86945       -3.59041        0.02753
C          3.06510       -3.55789       -1.33931
C          2.85981       -2.38677       -2.04108
C          2.45461       -1.24803       -1.37029
H          2.27711       -0.32480       -1.89956
H          2.30571       -2.46843        1.76101
C          1.36139       -0.01379        2.58702
C          0.11583       -0.81084        2.93391
C         -1.17971       -0.08447        2.60477
P         -1.64130       -0.26369        0.83907
C         -3.21888        0.55464        0.56271
C         -4.23361       -0.09143       -0.10581
C         -5.43001        0.56143       -0.34051
C         -5.59988        1.86175        0.09169
C         -4.57571        2.51100        0.75219
C         -3.37973        1.85507        0.98464
H         -2.56601        2.35703        1.48388
H         -4.08105       -1.09870       -0.45730
C         -1.73411       -2.02316        0.48102
C         -0.78974       -2.62104       -0.32077
C         -0.84690       -3.98142       -0.55954
C         -1.85083       -4.73763        0.01133
C         -2.79169       -4.13717        0.82449
C         -2.72871       -2.77571        1.06360
H         -3.44953       -2.29592        1.70691
H          0.00332       -2.02926       -0.74395
Pd        -0.11253        0.71601       -0.61067
Cl         1.32379        1.92400       -1.84452
Cl        -1.83876        0.87475       -2.03893
H         -2.02163       -0.48872        3.17229
H         -1.11067        0.97738        2.84621
H          0.13318       -1.77871        2.41502
H          0.13435       -1.05684        4.00738
H          2.26209       -0.47710        2.99663
H          1.30268        0.98457        3.02504
H          6.14893        1.99324       -0.11875
H          3.23427        4.83146        1.14968
H          3.02884       -4.50555        0.57380
H          3.01068       -2.35951       -3.10768
H         -6.22489        0.05754       -0.86541
H         -4.70443        3.52908        1.08115
H         -0.10377       -4.44911       -1.18421
H         -3.57228       -4.72767        1.27535
H          5.53077        4.30757        0.44094
H          3.37866       -4.44842       -1.85925
H         -6.53070        2.37290       -0.09275
H         -1.89739       -5.79837       -0.17405
