111
-148.55440725
P         -2.52537       -2.08390       -0.70338
P          0.19559       -0.49080       -0.37314
C         -1.33535       -2.04090       -2.07041
C         -0.13450       -1.38465       -1.90560
C         -3.40213       -3.70968       -0.59238
C         -2.88370       -4.53839        0.56261
C         -1.62813       -2.64819       -3.27470
H         -2.57680       -3.14232       -3.40591
C         -0.70974       -2.60387       -4.30953
H         -0.93737       -3.07807       -5.25026
C          0.49559       -1.95002       -4.13983
H          1.20902       -1.91287       -4.94658
C          0.78195       -1.33358       -2.93507
H          1.71047       -0.80318       -2.79177
Pd        -1.37247       -1.30442        1.13153
Cl        -3.15001       -1.79065        2.40638
Cl        -0.07885       -0.46885        2.76985
C         -4.87991       -3.29231       -0.47286
C         -3.96560       -0.94469       -0.93211
H         -3.02781       -4.01647        1.50968
H         -3.40436       -5.49633        0.63219
H         -1.81469       -4.73911        0.45879
H         -5.14351       -3.23248        0.59216
H         -5.53424       -4.06955       -0.89620
H         -4.08236       -0.40853        0.01936
C         -5.14215       -1.91509       -1.14716
C         -3.73028        0.02515       -2.06961
H         -3.22741       -4.22532       -1.54512
H         -5.28972       -2.05809       -2.22648
H         -6.07827       -1.46909       -0.77811
H         -2.86121        0.65684       -1.87567
H         -3.54522       -0.50978       -3.00294
H         -4.59315        0.67695       -2.22464
C         -1.21025        3.82489       -0.79721
C         -0.93129        3.06000       -1.95893
C         -0.47316        1.76306       -1.79764
C         -0.35552        1.20555       -0.55174
C         -0.71710        1.90885        0.56625
C         -1.18765        3.20632        0.47855
O         -1.48244        5.21430       -0.91088
C         -1.10093        3.62601       -3.37765
H         -0.20331        1.16461       -2.64963
H         -0.62499        1.41940        1.51967
C         -1.65458        3.91467        1.75967
C          4.54924       -0.69904        0.95255
C          3.93132       -1.84771        0.39004
C          2.61436       -1.74588       -0.02925
C          1.90175       -0.58912        0.15327
C          2.45568        0.47801        0.81043
C          3.76259        0.44098        1.26603
O          5.95664       -0.65902        1.12606
C          4.63756       -3.20463        0.23095
H          2.12893       -2.57551       -0.51493
H          1.84874        1.35226        0.97257
C          4.25667        1.62277        2.11730
C          0.19683        4.32868       -3.80359
C         -1.40212        2.49649       -4.38927
C         -2.28298        4.61035       -3.43946
C         -2.22684        2.89096        2.76805
C         -0.46053        4.62887        2.41056
C         -2.77887        4.92198        1.45836
C         -0.33085        6.04167       -0.80391
H          1.03510        3.63253       -3.78643
H          0.11075        4.72919       -4.81337
H          0.43680        5.15213       -3.13556
H         -0.54818        1.83351       -4.52043
H         -2.25412        1.90025       -4.06448
H         -1.63896        2.90932       -5.36961
H         -3.19957        4.13090       -3.09726
H         -2.10716        5.48063       -2.81185
H         -2.44489        4.96513       -4.45699
H         -2.68108        3.39798        3.61887
H         -2.99164        2.27142        2.30034
H         -1.45196        2.23633        3.16400
H         -0.76153        5.13750        3.32602
H          0.32317        3.91542        2.66341
H         -0.02965        5.36884        1.74038
H         -2.43133        5.72371        0.81178
H         -3.61200        4.42824        0.95921
H         -3.15375        5.37680        2.37490
H          0.56677        5.43246       -0.69033
H         -0.24155        6.65859       -1.69797
H         -0.43261        6.70309        0.05620
C          6.63351       -0.14150       -0.00707
C          5.92828       -3.29335        1.06394
C          3.70410       -4.33156        0.72585
C          4.96694       -3.43740       -1.25265
C          3.20846        1.93334        3.20903
C          5.58015        1.31438        2.83825
C          4.43570        2.85984        1.22187
H          5.72765       -3.06023        2.10906
H          6.36035       -4.29256        1.01457
H          6.67819       -2.59275        0.70413
H          3.38748       -4.14500        1.75166
H          2.81190       -4.41955        0.10830
H          4.21167       -5.29553        0.70065
H          5.63866       -2.66913       -1.63100
H          5.44730       -4.40467       -1.39787
H          4.06265       -3.41684       -1.86021
H          3.00795        1.04774        3.81129
H          3.56028        2.72137        3.87428
H          2.26485        2.26634        2.78092
H          5.85908        2.12452        3.51160
H          5.49433        0.39942        3.42338
H          6.39358        1.18110        2.12898
H          5.17572        2.67757        0.44462
H          4.76603        3.71854        1.80580
H          3.49899        3.12714        0.73351
H          7.70415       -0.11135        0.19629
H          6.44959       -0.77526       -0.87317
H          6.27949        0.86474       -0.22652
