75
-122.81216809
P          1.81124       -0.62349       -0.09745
C          1.77928       -1.55524       -1.64089
C          2.19420       -2.86787       -1.63795
C          2.25486       -3.57500       -2.82528
C          1.90461       -2.96034       -4.01099
C          1.48572       -1.64492       -4.01057
C          1.42050       -0.94474       -2.82066
H          1.07177        0.07365       -2.80239
H          1.20126       -1.16659       -4.93332
H          1.95148       -3.50995       -4.93690
H          2.57895       -4.60268       -2.82415
H          2.48073       -3.33122       -0.70743
C          3.10902       -1.36302        0.90948
C          4.40534       -1.33115        0.44768
C          5.41523       -1.91804        1.18849
C          5.11721       -2.54328        2.38271
C          3.81283       -2.58974        2.83265
C          2.80550       -2.00255        2.08936
H          1.78288       -2.03931        2.42838
H          3.57880       -3.08180        3.76238
H          5.90305       -2.99963        2.96226
H          6.43156       -1.88997        0.83134
H          4.61973       -0.86374       -0.50062
C          2.17486        1.10241       -0.47836
C          3.34122        1.74911       -0.14255
C          3.49923        3.10278       -0.40361
C          2.45438        3.79421       -1.01563
C          1.27445        3.16344       -1.34162
C          1.12753        1.79421       -1.06908
O         -0.07178        1.11924       -1.34847
C         -1.25443        1.80656       -1.03138
C         -1.41002        3.16938       -1.33034
C         -2.59003        3.80297       -1.00822
C         -3.62878        3.12263       -0.37347
C         -3.44543        1.78676       -0.04317
C         -2.27739        1.14081       -0.37333
P         -1.91096       -0.53686        0.15298
C         -3.35386       -1.22547        0.99369
C         -3.55618       -1.07017        2.34497
C         -4.67713       -1.60796        2.94686
C         -5.60050       -2.29728        2.18712
C         -5.40434       -2.44498        0.82872
C         -4.27870       -1.90544        0.23262
H         -4.11501       -2.01362       -0.82774
H         -6.12573       -2.97973        0.23297
H         -6.47666       -2.71698        2.65394
H         -4.83236       -1.48342        4.00601
H         -2.84571       -0.50608        2.92265
C         -1.60637       -1.60798       -1.25518
C         -1.88899       -1.17672       -2.53093
C         -1.76709       -2.05243       -3.59404
C         -1.36845       -3.35531       -3.36904
C         -1.08755       -3.78341       -2.08655
C         -1.21103       -2.90568       -1.02438
H         -1.01647       -3.22940       -0.01374
H         -0.77364       -4.79932       -1.91200
H         -1.26936       -4.03782       -4.19724
H         -1.98196       -1.71743       -4.59539
H         -2.20729       -0.15887       -2.68782
Pd         0.05224       -0.02967        1.39794
Cl        -1.38192        1.00609        2.79527
Cl         1.74310        0.84615        2.61946
H         -4.21093        1.25547        0.49552
C         -4.87923        3.83124        0.00756
H         -4.79366        4.25303        1.00975
H         -5.73319        3.15263       -0.00052
H         -5.09655        4.64609       -0.68419
H         -2.70201        4.84740       -1.24022
S         -0.06981        4.03970       -2.09931
H          2.56245        4.84278       -1.22992
C          4.76869        3.79317       -0.05164
H          4.12666        1.20900        0.35463
H          5.14795        3.44540        0.91019
H          5.53444        3.60390       -0.80495
H          4.62553        4.87208        0.01971
