58
-89.86515343
P          1.65620        0.27475        0.83530
C          2.83013        1.60650        0.57826
C          4.14714        1.32039        0.30066
C          5.04453        2.35166        0.08976
C          4.61388        3.66213        0.15724
C          3.29046        3.94380        0.43420
C          2.39503        2.91026        0.64516
H          1.35660        3.11402        0.85490
H          4.46573        0.29207        0.24354
C          2.38681       -1.31020        0.39745
C          2.79591       -2.20280        1.36278
C          3.31798       -3.42799        0.98905
C          3.43238       -3.75085       -0.34866
C          3.03304       -2.84904       -1.31430
C          2.51181       -1.62635       -0.93607
H          2.19849       -0.90759       -1.67535
H          2.71121       -1.94239        2.40496
C          1.16642        0.32190        2.60591
C          0.11457       -0.70771        2.99221
C         -1.30233       -0.29508        2.63780
P         -1.69566       -0.20898        0.84185
C         -3.25624        0.68557        0.74572
C         -4.38650        0.11405        1.28696
C         -5.58978        0.79600        1.25126
C         -5.65147        2.05289        0.68336
C         -4.51295        2.63087        0.15826
C         -3.31186        1.94623        0.19594
H         -2.41678        2.38984       -0.20911
H         -4.32213       -0.86048        1.74500
C         -1.81582       -1.86104        0.13713
C         -0.68227       -2.63964        0.10370
C         -0.72548       -3.90616       -0.44884
C         -1.90960       -4.38578       -0.97149
C         -3.04338       -3.59752       -0.95108
C         -2.99353       -2.33045       -0.39880
H         -3.86603       -1.69922       -0.40274
H          0.24675       -2.23560        0.46512
Pd        -0.10191        0.63805       -0.62889
Cl         1.41929        1.13773       -2.21263
Cl        -1.77396        0.77235       -2.12962
H         -2.03361       -0.98325        3.06886
H         -1.52251        0.69228        3.04888
H          0.34869       -1.67391        2.52956
H          0.17041       -0.89205        4.07651
H          2.09171        0.18137        3.17011
H          0.81813        1.33248        2.82687
H          6.07618        2.13175       -0.13068
H          2.95370        4.96631        0.48222
H          3.63511       -4.13014        1.74257
H          3.12490       -3.09634       -2.35909
H         -6.47615        0.34712        1.66861
H         -4.55897        3.61332       -0.28217
H          0.16717       -4.50886       -0.48169
H         -3.96507       -3.96597       -1.37068
H          5.31137        4.46670       -0.00978
H          3.83786       -4.70628       -0.63929
H         -6.58839        2.58487        0.65317
H         -1.94661       -5.37184       -1.40509
