171
-217.84717465
P         -1.59215        0.42238       -0.35250
P          1.64262       -0.31938       -0.27404
C         -0.82198        1.46939       -1.59351
C          0.99565       -1.20375       -1.69361
C          0.02782        0.93504       -2.55620
C          0.69204        1.81332       -3.43391
C          0.45508        3.17455       -3.33934
C         -0.41044        3.68201       -2.39373
C         -1.04075        2.82333       -1.51507
C          1.23490       -2.55217       -1.79101
C          0.71990       -3.27191       -2.85144
C         -0.04778       -2.63261       -3.80212
C         -0.30136       -1.27327       -3.72036
C          0.24384       -0.53496       -2.65232
Cl         1.47778        0.37918        2.95950
Cl        -1.66635       -0.40972        2.81102
C         -1.12249       -0.61464       -4.77304
C          1.64768        1.31042       -4.45898
H         -0.58914        4.74316       -2.33416
H         -1.70599        3.21197       -0.76113
H          1.82893       -3.04235       -1.03636
H          0.91630       -4.32834       -2.93418
H          0.96352        3.84047       -4.01612
H         -0.45980       -3.19170       -4.62525
C         -3.60624       -3.33272       -1.85851
C         -2.69600       -3.43461       -0.81322
C         -2.05355       -2.27489       -0.40091
C         -2.32931       -1.07314       -1.00398
C         -3.23629       -0.98702       -2.03136
C         -3.89823       -2.12404       -2.47926
H         -4.11994       -4.21406       -2.19291
H         -1.34287       -2.30132        0.40673
H         -3.43398       -0.02145       -2.46525
C         -4.74007        2.62925        2.05985
C         -3.40806        2.99391        2.21645
C         -2.45511        2.32754        1.45550
C         -2.82998        1.33613        0.58267
C         -4.15037        0.98737        0.44574
C         -5.13673        1.62942        1.18018
H         -5.48070        3.13150        2.65326
H         -1.40890        2.55893        1.55705
H         -4.41590        0.19187       -0.22792
C          4.21257       -2.95655        2.37891
C          2.84653       -3.20437        2.31183
C          2.08505       -2.41521        1.46023
C          2.66606       -1.40236        0.73778
C          4.01494       -1.16390        0.82642
C          4.82041       -1.94693        1.64310
H          4.82432       -3.55261        3.02957
H          1.02271       -2.57361        1.38229
H          4.43278       -0.34769        0.26526
C          4.00380        3.37616       -1.36631
C          2.94640        3.49705       -0.47364
C          2.23286        2.34891       -0.15466
C          2.55695        1.14794       -0.73428
C          3.59122        1.04791       -1.63214
C          4.34442        2.16859       -1.96291
H          4.59285        4.24664       -1.58859
H          1.42299        2.37916        0.55331
H          3.80885        0.08513       -2.06260
Pd        -0.02622        0.04574        1.32826
C         -0.99760       -5.25478       -0.62590
C         -2.37048       -4.77186       -0.13252
C         -3.42458       -5.84709       -0.46186
C         -2.33901       -4.58849        1.39863
H         -0.71050       -6.18740       -0.14062
H         -1.01494       -5.42473       -1.70212
H         -0.22905       -4.51151       -0.41914
H         -3.22006       -6.76842        0.08346
H         -4.42370       -5.51065       -0.18525
H         -3.42321       -6.09150       -1.52370
H         -2.16350       -5.53950        1.90119
H         -1.54891       -3.90606        1.70679
H         -3.28649       -4.18722        1.75746
C         -6.33656       -2.43398       -2.94255
C         -4.97848       -2.06709       -3.56877
C         -4.63819       -3.06668       -4.69031
C         -5.09153       -0.65956       -4.18683
H         -7.13363       -2.39043       -3.68453
H         -6.31994       -3.44117       -2.52747
H         -6.58739       -1.74506       -2.13609
H         -5.37410       -3.01638       -5.49266
H         -3.65954       -2.85165       -5.11739
H         -4.62270       -4.09092       -4.32024
H         -5.38194        0.07693       -3.43811
H         -4.14670       -0.34670       -4.62930
H         -5.84629       -0.64219       -4.97293
C         -1.51253        4.35883        3.22419
C         -3.02505        4.06619        3.24603
C         -3.40527        3.56928        4.65246
C         -3.77622        5.37316        2.93169
H         -1.20151        4.71280        2.24213
H         -1.25593        5.12996        3.95035
H         -0.93528        3.46834        3.47258
H         -2.89386        2.63388        4.87912
H         -3.12902        4.29929        5.41302
H         -4.47711        3.39173        4.73242
H         -3.53963        5.71997        1.92589
H         -4.85514        5.23729        2.99415
H         -3.49971        6.15980        3.63354
C         -6.73083       -0.29418        1.37704
C         -6.59889        1.19534        1.00655
C         -7.01787        1.40112       -0.46113
C         -7.54684        2.01060        1.90634
H         -7.76359       -0.62967        1.28451
H         -6.11838       -0.92008        0.72883
H         -6.41020       -0.46440        2.40457
H         -8.05760        1.11272       -0.61469
H         -6.91055        2.44665       -0.74927
H         -6.40419        0.80444       -1.13476
H         -7.49508        3.07315        1.66948
H         -8.57998        1.69180        1.76848
H         -7.29879        1.87778        2.95922
C          1.49894       -5.31654        2.24706
C          2.15144       -4.27199        3.16840
C          1.07025       -3.59583        4.03431
C          3.14358       -4.99206        4.10137
H          2.24523       -5.78972        1.60919
H          1.00395       -6.09574        2.82642
H          0.75309       -4.85496        1.60359
H          0.57014       -4.32271        4.67384
H          1.51202       -2.83036        4.67176
H          0.31016       -3.11538        3.41971
H          3.91603       -5.50734        3.53082
H          3.62482       -4.28780        4.77976
H          2.63087       -5.73759        4.70908
C          6.65462       -1.30621        3.22468
C          6.33052       -1.70269        1.77306
C          6.80474       -0.57160        0.83883
C          7.09082       -2.98922        1.40148
H          7.71902       -1.10628        3.34670
H          6.10675       -0.40786        3.50857
H          6.38123       -2.09803        3.92113
H          6.59062       -0.80971       -0.20295
H          6.31836        0.37194        1.08583
H          7.88030       -0.42010        0.92887
H          6.83446       -3.80977        2.07046
H          6.84947       -3.29816        0.38454
H          8.16827       -2.83625        1.46102
C          1.32898        4.80062        0.98989
C          2.62568        4.85737        0.15948
C          2.44387        5.91301       -0.94762
C          3.78595        5.26684        1.08331
H          0.48741        4.48239        0.37518
H          1.42751        4.10964        1.82681
H          1.08915        5.78128        1.40056
H          3.35892        6.05116       -1.52190
H          1.65714        5.61360       -1.63902
H          2.17040        6.87903       -0.52355
H          3.58602        6.22627        1.56006
H          3.93366        4.52375        1.86680
H          4.71866        5.35596        0.52721
C          5.44977        3.16154       -3.99807
C          5.56235        2.09145       -2.89494
C          5.67277        0.70975       -3.56897
C          6.83706        2.33911       -2.06842
H          4.53687        3.02956       -4.57697
H          5.43830        4.16707       -3.57991
H          6.29362        3.10056       -4.68517
H          6.51950        0.68049       -4.25461
H          5.82260       -0.07785       -2.83087
H          4.77444        0.48008       -4.14146
H          6.93398        1.59613       -1.27748
H          7.72677        2.28318       -2.69537
H          6.81699        3.32306       -1.60084
H         -1.93622       -1.26434       -5.09592
H          2.55866        1.90895       -4.46241
H         -0.51684       -0.37980       -5.64926
H         -1.56486        0.31370       -4.40902
H          1.21100        1.35973       -5.45740
H          1.93611        0.27644       -4.26555
