105
-153.06872582
Cl        -0.98556        2.16315       -2.83117
Pd         0.02240        1.56526       -0.90444
P          1.39772        0.76314        0.80586
N          0.55526       -0.40016        1.81617
C          0.00802       -1.65878        1.61204
C         -0.11018       -2.28114        0.34461
C         -0.79132       -3.51172        0.23772
C         -0.92660       -4.14947       -1.12426
C         -1.98769       -5.25837       -1.19527
C         -1.86047       -6.21264       -0.00428
C         -2.03077       -5.45729        1.32290
C         -1.29999       -4.13854        1.37732
C         -1.13493       -3.53008        2.61413
C         -0.50120       -2.32050        2.72917
H         -0.41030       -1.85154        3.69355
H         -1.53293       -4.01368        3.49021
H         -3.09545       -5.27228        1.50819
H         -2.58726       -7.03351       -0.08374
H         -2.98717       -4.80568       -1.19150
H         -1.15784       -3.36771       -1.85803
C          0.62667       -1.78698       -0.84418
C         -0.06623       -1.14939       -1.90980
C          0.62871       -0.89370       -3.09556
C          1.94360       -1.25441       -3.23636
C          2.62181       -1.91480       -2.21931
C          4.03712       -2.36614       -2.46475
C          4.41023       -3.60358       -1.63657
C          4.09315       -3.36856       -0.15674
C          2.60831       -3.02692        0.06340
C          1.96331       -2.19038       -1.01991
H          2.03534       -3.95677        0.16002
H          4.71528       -2.54620        0.21233
H          5.46879       -3.86572       -1.77542
H          4.71755       -1.54042       -2.22859
H          2.46257       -1.03855       -4.15480
H          0.11995       -0.38197       -3.89346
N         -1.40608       -0.75363       -1.80781
P         -1.89167        0.22428       -0.41875
C         -2.83709       -0.75241        0.74764
C         -3.51968       -1.84342        0.26723
C         -4.30283       -2.59571        1.12386
C         -4.41287       -2.24806        2.46344
C         -3.72525       -1.13275        2.92485
C         -2.94656       -0.37884        2.06554
H         -2.41940        0.49267        2.41762
H         -3.79955       -0.86113        3.96396
C         -5.21343       -3.08534        3.39863
H         -4.82751       -3.46119        0.75704
H         -3.42529       -2.10522       -0.77477
C         -3.02114        1.53401       -0.90412
C         -2.96569        2.74451       -0.25406
C         -3.83697        3.75591       -0.61523
C         -4.76783        3.55889       -1.62645
C         -4.82165        2.32104       -2.25335
C         -3.94879        1.31050       -1.89236
H         -3.99075        0.34738       -2.37510
H         -5.55091        2.15366       -3.02746
C         -5.71894        4.64122       -2.00246
H         -3.79726        4.70739       -0.11304
H         -2.24020        2.89538        0.53010
H         -1.77078       -0.26413       -2.61500
H          0.72036       -0.12274        2.77599
C          1.35852        2.30608        1.72706
C          2.43476        3.16091        1.72685
C          2.35683        4.36141        2.40853
C          1.19653        4.71783        3.08332
C          0.12128        3.83934        3.07366
C          0.20228        2.63824        2.39261
H         -0.63298        1.95708        2.37195
H         -0.77999        4.10210        3.60076
C          1.11993        6.00154        3.83425
H          3.19820        5.03309        2.41612
H          3.32727        2.89033        1.18651
C          3.12982        0.29322        0.72471
C          3.91539        0.60077       -0.35999
C          5.26207        0.29243       -0.34920
C          5.83617       -0.32374        0.75378
C          5.03471       -0.60554        1.85209
C          3.68552       -0.29804        1.83505
H          3.06182       -0.51151        2.68836
H          5.47222       -1.06824        2.72012
C          7.29015       -0.64378        0.76753
H          5.87995        0.53905       -1.19574
H          3.47717        1.10999       -1.20041
Cl         1.91496        2.56178       -1.61077
H         -1.69373       -6.08203        2.16001
H         -1.91684       -5.80777       -2.14465
H         -0.87298       -6.69067       -0.02744
H          0.04942       -4.55071       -1.42138
H          4.38305       -4.24199        0.44408
H          2.47904       -2.51135        1.02255
H          4.17531       -2.56505       -3.53515
H          3.83993       -4.46861       -1.99791
H         -4.59528       -3.86669        3.84309
H         -5.62974       -2.48390        4.20792
H         -6.04504       -3.56713        2.88252
H         -6.62956        4.58193       -1.40481
H         -5.27631        5.62585       -1.84565
H         -6.00060        4.56969       -3.05392
H          0.09806        6.38265        3.85916
H          1.45512        5.86876        4.86380
H          1.74621        6.76590        3.37209
H          7.62798       -0.97216       -0.21656
H          7.87678        0.23115        1.05092
H          7.51254       -1.44243        1.47666
