87
-129.18639916
P         -1.68672       -0.36779       -0.15272
P          1.58300        0.35018       -0.17764
C         -1.43121        0.96311       -1.34821
C          1.34320       -0.65417       -1.64733
C         -0.46707        0.91100       -2.35277
C         -0.25894        2.05094       -3.15325
C         -1.03450        3.17838       -2.94553
C         -1.99362        3.20772       -1.95720
C         -2.18149        2.09892       -1.15599
C          2.13473       -1.76002       -1.83851
C          1.95953       -2.55314       -2.95511
C          0.98586       -2.22996       -3.87639
C          0.17497       -1.12079       -3.70136
C          0.35889       -0.30786       -2.56507
Cl         1.22778        1.08393        2.98826
Cl        -1.34072       -0.88316        3.03162
H         -2.58556        4.09474       -1.80153
H         -2.91639        2.12230       -0.36827
H          2.89540       -2.00268       -1.11530
H          2.57837       -3.42295       -3.10292
H         -0.87280        4.04460       -3.56452
H          0.84213       -2.84854       -4.74600
C         -1.01796       -4.57832       -1.72193
C         -0.42802       -4.19086       -0.52661
C         -0.66683       -2.90506       -0.05826
C         -1.45862       -2.03566       -0.77269
C         -2.06011       -2.43526       -1.94255
C         -1.83845       -3.71367       -2.42010
H         -0.82922       -5.56771       -2.10232
C          0.48059       -5.10730        0.21407
H         -0.24720       -2.59063        0.88168
H         -2.68112       -1.74002       -2.48483
H         -2.29499       -4.02972       -3.34369
C         -5.72837        0.07582        1.89645
C         -5.54517       -0.89888        0.93560
C         -4.31719       -1.03365        0.31545
C         -3.28268       -0.19579        0.66113
C         -3.46379        0.77692        1.61734
C         -4.69294        0.93119        2.24681
H         -6.68092        0.17627        2.38825
H         -6.35672       -1.55725        0.67215
H         -4.15813       -1.79423       -0.43138
H         -2.63941        1.41304        1.89481
C         -4.87080        1.95824        3.30891
C          4.96864       -1.34442        2.35776
C          5.08092       -0.07486        1.82590
C          4.06108        0.43996        1.04807
C          2.93892       -0.31718        0.80738
C          2.82349       -1.58061        1.34001
C          3.84122       -2.11782        2.11779
H          5.75803       -1.74363        2.97155
H          5.95958        0.51742        2.02237
H          4.12992        1.43381        0.63720
H          1.93422       -2.15853        1.15426
C          3.69454       -3.47423        2.71213
C          2.29236        4.68896       -1.30931
C          3.05184        3.69272       -1.89115
C          2.84758        2.37254       -1.53452
C          1.88974        2.06452       -0.59737
C          1.13885        3.05434       -0.00753
C          1.33084        4.38593       -0.35500
H          2.43979        5.71626       -1.59599
H          3.79616        3.94191       -2.62956
H          3.41781        1.57902       -1.99171
H          0.39164        2.79361        0.72292
C          0.48503        5.45190        0.24679
Pd        -0.05847        0.07048        1.45550
C          0.78158        2.07472       -4.21894
C         -0.87210       -0.81578       -4.71551
H          1.33263        3.01607       -4.20227
H          1.50586        1.26993       -4.08919
H          0.33026        1.96792       -5.20603
H         -1.43231       -1.71432       -4.97808
H         -1.58651       -0.08013       -4.34439
H         -0.42520       -0.42110       -5.62879
H          0.19555       -6.14983        0.06626
H          1.51035       -4.98708       -0.12578
H          0.45429       -4.90480        1.28581
H         -4.29632        2.85804        3.08384
H         -5.91765        2.24880        3.40751
H         -4.53371        1.57702        4.27381
H          4.66238       -3.89023        2.99536
H          3.06853       -3.43850        3.60482
H          3.23165       -4.16317        2.00406
H          0.18097        5.18583        1.26021
H          1.02300        6.39941        0.29987
H         -0.41799        5.60861       -0.34496
