105
-153.06928363
Cl        -0.95055        2.07022       -2.86061
Pd         0.02525        1.57201       -0.88511
P          1.38100        0.74626        0.82451
N          0.57177       -0.43574        1.83898
C          0.01542       -1.68801        1.62305
C         -0.09125       -2.30152        0.35108
C         -0.78241       -3.52370        0.22429
C         -0.89915       -4.14749       -1.14711
C         -1.38798       -5.60456       -1.14738
C         -2.54350       -5.79852       -0.16113
C         -2.10565       -5.43299        1.26519
C         -1.33858       -4.13770        1.34814
C         -1.17790       -3.54425        2.59305
C         -0.51820       -2.35045        2.72830
H         -0.43254       -1.89063        3.69754
H         -1.59883       -4.02681        3.45888
H         -2.97948       -5.37016        1.92646
H         -3.38488       -5.16061       -0.45941
H         -1.68393       -5.91685       -2.15883
H         -1.57772       -3.53066       -1.74799
C          0.64992       -1.79752       -0.82981
C         -0.04769       -1.16804       -1.89646
C          0.64526       -0.90957       -3.08255
C          1.96178       -1.26435       -3.22400
C          2.64363       -1.92155       -2.20719
C          4.05861       -2.37254       -2.45533
C          4.43330       -3.61043       -1.62849
C          4.11827       -3.37676       -0.14797
C          2.63351       -3.03609        0.07452
C          1.98771       -2.19718       -1.00631
H          2.06068       -3.96642        0.16855
H          4.74070       -2.55450        0.22084
H          5.49178       -3.87204       -1.76898
H          4.73960       -1.54707       -2.22018
H          2.47870       -1.04801       -4.14349
H          0.13352       -0.40101       -3.88052
N         -1.39011       -0.78225       -1.79205
P         -1.87815        0.21075       -0.41420
C         -2.82512       -0.74342        0.77065
C         -3.52854       -1.83089        0.31260
C         -4.31535       -2.55835        1.18732
C         -4.40906       -2.18955        2.52245
C         -3.70110       -1.07809        2.96111
C         -2.91883       -0.34909        2.08382
H         -2.37842        0.52076        2.41857
H         -3.76308       -0.78936        3.99643
C         -5.21543       -2.99878        3.47713
H         -4.85674       -3.42091        0.83858
H         -3.45060       -2.10811       -0.72663
C         -3.00836        1.51449       -0.91674
C         -2.96159        2.72998       -0.27523
C         -3.83370        3.73585       -0.64955
C         -4.76564        3.52435       -1.65680
C         -4.79910        2.28756       -2.28717
C         -3.92549        1.28262       -1.91287
H         -3.95735        0.31804       -2.39336
H         -5.51168        2.11734       -3.07606
C         -5.68323        4.61748       -2.08159
H         -3.79247        4.69501       -0.16230
H         -2.24074        2.88976        0.51144
H         -1.76325       -0.30763       -2.60405
H          0.73667       -0.16304        2.80029
C          1.34069        2.28144        1.75889
C          2.41754        3.13562        1.76871
C          2.33954        4.32981        2.46135
C          1.17848        4.68104        3.13746
C          0.10256        3.80359        3.11757
C          0.18388        2.60890        2.42545
H         -0.65170        1.92893        2.39696
H         -0.79942        4.06204        3.64558
C          1.10215        5.95766        3.90039
H          3.18156        5.00052        2.47694
H          3.31110        2.86953        1.22795
C          3.11647        0.30465        0.70085
C          3.87155        0.63821       -0.39770
C          5.22271        0.35066       -0.42142
C          5.83143       -0.26974        0.66057
C          5.06054       -0.57477        1.77442
C          3.70663       -0.28898        1.79181
H          3.10606       -0.52061        2.65697
H          5.52567       -1.03913        2.62709
C          7.28989       -0.56800        0.63914
H          5.81699        0.61745       -1.27868
H          3.40643        1.15337       -1.22006
Cl         1.86510        2.65687       -1.59704
H         -1.48215       -6.23499        1.67793
H         -0.55863       -6.26607       -0.86703
H         -2.92472       -6.82869       -0.20308
H          0.07360       -4.08137       -1.65028
H          4.40932       -4.25063        0.45164
H          2.50443       -2.52321        1.03513
H          4.19477       -2.57108       -3.52607
H          3.86289       -4.47544       -1.98971
H         -4.59820       -3.76076        3.95516
H         -5.64364       -2.37184        4.26046
H         -6.03888       -3.50287        2.96932
H         -6.61947        4.21666       -2.47253
H         -5.92799        5.27345       -1.24502
H         -5.22468        5.22497       -2.86297
H          1.72088        6.72898        3.43963
H          0.07877        6.33369        3.93746
H          1.44675        5.81738        4.92582
H          7.53046       -1.40776        1.29266
H          7.62251       -0.82687       -0.36714
H          7.86688        0.29523        0.97345
