45
-71.81657541
C          0.61422        1.69842        2.91864
P         -0.12268        0.74464        1.54843
P         -0.12579        0.90965       -1.57135
C          0.58442        1.90693       -2.92507
Cl         2.98968       -0.19159        1.56911
H          0.99907        2.64324        2.54563
H          1.38704        1.35619       -3.40738
Cl         2.96031       -0.21369       -1.67758
C         -1.39262        1.72324        0.72183
C         -1.38699        1.80661       -0.65219
C         -2.36220        2.52700       -1.31061
C         -3.34149        3.17903       -0.58191
C         -3.34379        3.10178        0.79760
C         -2.36823        2.37072        1.45246
H         -2.35629        2.56819       -2.38778
H         -4.10427        3.74424       -1.09171
H         -4.10731        3.60836        1.36470
H         -2.36338        2.29799        2.52801
Pd         1.49597        0.25466       -0.04706
H          0.98549        2.83402       -2.52552
H          1.43033        1.13508        3.36204
H         -0.17899        2.14030       -3.66165
C         -1.85532       -3.10487       -2.82133
C         -1.85775       -2.70948       -1.49840
C         -1.32760       -1.48114       -1.15037
C         -0.79987       -0.65999       -2.11884
C         -0.79309       -1.04925       -3.43871
C         -1.32392       -2.27714       -3.79151
H         -2.26651       -4.06219       -3.09712
H         -2.26618       -3.35451       -0.73795
H         -1.30878       -1.15999       -0.12336
H         -0.37167       -0.39719       -4.18605
H         -1.32021       -2.58824       -4.82328
C         -1.67885       -3.29814        2.92208
C         -2.57481       -2.28558        2.63892
C         -2.11032       -1.04610        2.23810
C         -0.75592       -0.83070        2.12359
C          0.14013       -1.83600        2.40470
C         -0.32058       -3.07587        2.80681
H         -2.04064       -4.26453        3.23324
H         -3.63442       -2.46097        2.72693
H         -2.79729       -0.24984        2.00227
H          1.19532       -1.64198        2.29238
H          0.37881       -3.86615        3.02469
H         -0.13349        1.89499        3.68152
