87
-129.18467697
P         -1.66407       -0.36254       -0.13407
P          1.52960        0.32576       -0.21056
C         -1.43518        0.97070       -1.33460
C          1.30334       -0.65396       -1.69861
C         -0.49787        0.93180       -2.36512
C         -0.30422        2.08516       -3.15016
C         -1.07285        3.21025       -2.90714
C         -2.00842        3.22567       -1.89636
C         -2.17760        2.10545       -1.10688
C          2.10009       -1.75077       -1.91731
C          1.93273       -2.51127       -3.05753
C          0.96177       -2.16502       -3.97361
C          0.14598       -1.06402       -3.77071
C          0.32451       -0.28247       -2.61141
Cl         1.23713        1.22262        2.94575
Cl        -1.30482       -0.76744        3.13208
H         -2.59438        4.11125       -1.71240
H         -2.89012        2.11926       -0.29835
H          2.85950       -2.01046       -1.19885
H          2.55528       -3.37433       -3.22764
H         -0.92244        4.08654       -3.51473
H          0.82323       -2.75967       -4.86058
C         -0.85032       -4.59785       -1.56389
C         -0.35547       -4.17983       -0.33617
C         -0.63823       -2.88629        0.08425
C         -1.37796       -2.03883       -0.70841
C         -1.89169       -2.47104       -1.90796
C         -1.62474       -3.75698       -2.33935
H         -0.62655       -5.59364       -1.90675
C          0.49451       -5.07683        0.49271
H         -0.30682       -2.55126        1.05233
H         -2.47943       -1.79491       -2.50810
H         -2.00941       -4.09733       -3.28673
C         -5.77459       -0.02212        1.79451
C         -5.55146       -0.95462        0.80078
C         -4.29973       -1.06149        0.22401
C         -3.28285       -0.23522        0.64251
C         -3.50425        0.69662        1.63033
C         -4.75270        0.81043        2.22948
H         -6.74913        0.06439        2.24402
H         -6.35140       -1.59919        0.47507
H         -4.10993       -1.78710       -0.55014
H         -2.69763        1.33323        1.95456
C         -4.98696        1.82571        3.29210
C          4.88198       -1.45752        2.31197
C          5.00334       -0.17218        1.82176
C          3.99230        0.37083        1.05176
C          2.87178       -0.37565        0.77297
C          2.74754       -1.65484        1.26424
C          3.74930       -2.21474        2.04646
H          5.66915       -1.88255        2.91109
H          5.88340        0.40939        2.04244
H          4.06850        1.37692        0.67333
H          1.86548       -2.22860        1.03770
C          3.61057       -3.60452        2.56039
C          2.39466        4.63689       -1.34523
C          3.12073        3.61297       -1.92154
C          2.86860        2.30189       -1.56217
C          1.89724        2.03010       -0.62764
C          1.17874        3.04736       -0.04431
C          1.41904        4.37033       -0.39434
H          2.57949        5.65758       -1.63381
H          3.87611        3.83367       -2.65779
H          3.41193        1.48747       -2.01537
H          0.41882        2.81533        0.68259
C          0.60858        5.46673        0.20134
Pd        -0.06121        0.11686        1.49023
C          0.72008        2.13050       -4.23090
C         -0.90361       -0.73896       -4.77591
H          1.43776        1.31488       -4.13728
H          0.25265        2.05937       -5.21372
H          1.28163        3.06506       -4.19350
H         -0.45871       -0.33159       -5.68461
H         -1.46802       -1.63131       -5.05052
H         -1.61408       -0.00684       -4.39046
H          0.20318       -6.12074        0.36879
H          1.54413       -4.98347        0.21019
H          0.40776       -4.83200        1.55230
H         -5.83398        1.55085        3.92217
H         -4.11264        1.92319        3.93742
H         -5.19445        2.80352        2.85520
H          3.81110       -4.33137        1.77194
H          4.30501       -3.79584        3.37959
H          2.60104       -3.78195        2.93425
H          1.17443        6.39847        0.24205
H         -0.29284        5.64420       -0.38698
H          0.30278        5.21952        1.21900
