75
-122.81850916
P          1.80723       -0.56534       -0.01435
C          1.67586       -1.56462       -1.50265
C          1.64348       -2.93416       -1.37278
C          1.62896       -3.73130       -2.50337
C          1.65197       -3.14958       -3.75551
C          1.68374       -1.77480       -3.88047
C          1.69613       -0.98111       -2.74858
H          1.71401        0.09308       -2.82988
H          1.69412       -1.32006       -4.85732
H          1.63806       -3.76957       -4.63697
H          1.60086       -4.80404       -2.40572
H          1.64334       -3.37303       -0.38732
C          3.12575       -1.30504        0.96397
C          4.39433       -1.33699        0.43076
C          5.42669       -1.91934        1.14391
C          5.17801       -2.47451        2.38327
C          3.90072       -2.45421        2.90708
C          2.87088       -1.87182        2.19148
H          1.86956       -1.85343        2.58997
H          3.70556       -2.89008        3.87312
H          5.98135       -2.92737        2.94116
H          6.42168       -1.94164        0.73070
H          4.56894       -0.91586       -0.54711
C          2.20739        1.13987       -0.43559
C          3.36201        1.78688       -0.06185
C          3.53504        3.13663       -0.33617
C          2.50084        3.83186       -0.96238
C          1.33127        3.20057       -1.32332
C          1.18566        1.82683       -1.07256
O          0.00529        1.14599       -1.41057
C         -1.18771        1.80958       -1.08324
C         -1.35037        3.18123       -1.33465
C         -2.53178        3.79583       -0.98363
C         -3.56192        3.08546       -0.36787
C         -3.37276        1.73778       -0.09403
C         -2.20555        1.10740       -0.45696
P         -1.79110       -0.59345       -0.03176
C         -3.10241       -1.31863        0.96718
C         -4.36417       -1.39587        0.42237
C         -5.39523       -1.96315        1.14945
C         -5.15225       -2.45722        2.41545
C         -3.88205       -2.39028        2.95240
C         -2.85358       -1.82291        2.22301
H         -1.85845       -1.76885        2.63310
H         -3.69143       -2.77802        3.93963
H         -5.95447       -2.89832        2.98426
H         -6.38475       -2.02085        0.72662
H         -4.53456       -1.02025       -0.57468
C         -1.67818       -1.59439       -1.52069
C         -1.60117       -1.00533       -2.76174
C         -1.60437       -1.79148       -3.89889
C         -1.68313       -3.16521       -3.78434
C         -1.75500       -3.75337       -2.53710
C         -1.75481       -2.96325       -1.40147
H         -1.82828       -3.40636       -0.42072
H         -1.81344       -4.82558       -2.44728
H         -1.68118       -3.77975       -4.66971
H         -1.53882       -1.33209       -4.87142
H         -1.52728        0.06694       -2.83467
Pd        -0.00814       -0.03199        1.42848
Cl        -1.57602        1.01255        2.66393
Cl         1.62642        0.91128        2.66692
H         -4.13207        1.18873        0.43381
C         -4.81149        3.77270        0.05328
H         -5.66559        3.09559        0.00997
H         -5.02999        4.62413       -0.59250
H         -4.72378        4.13908        1.07685
H         -2.65066        4.84764       -1.17501
S         -0.01272        4.07746       -2.08181
H          2.60678        4.88503       -1.15385
C          4.77118        3.84173        0.09498
H          4.12319        1.24942        0.47514
H          5.63491        3.17643        0.06036
H          4.98365        4.69510       -0.55026
H          4.66934        4.20845        1.11711
