75
-122.81155260
P          1.80493       -0.62139       -0.09826
C          1.77617       -1.54397       -1.64837
C          2.19744       -2.85466       -1.65188
C          2.26106       -3.55631       -2.84226
C          1.90725       -2.93823       -4.02506
C          1.48215       -1.62485       -4.01853
C          1.41432       -0.93024       -2.82555
H          1.06085        0.08629       -2.80309
H          1.19493       -1.14382       -4.93900
H          1.95636       -3.48350       -4.95342
H          2.59015       -4.58239       -2.84573
H          2.48648       -3.32111       -0.72373
C          3.09389       -1.38063        0.90506
C          4.39746       -1.32882        0.46619
C          5.39716       -1.93648        1.20401
C          5.08170       -2.60269        2.37131
C          3.77007       -2.66970        2.79698
C          2.77287       -2.06178        2.05661
H          1.74425       -2.11512        2.37506
H          3.52241       -3.19439        3.70508
H          5.85963       -3.07562        2.94824
H          6.41916       -1.89321        0.86501
H          4.62550       -0.83170       -0.46354
C          2.17272        1.10665       -0.46847
C          3.33412        1.75670       -0.12197
C          3.48924        3.11159       -0.37972
C          2.44793        3.80017       -1.00081
C          1.27241        3.16651       -1.33685
C          1.12768        1.79691       -1.06533
O         -0.06870        1.11957       -1.35120
C         -1.25444        1.80419       -1.04014
C         -1.41286        3.16544       -1.34437
C         -2.59746        3.79548       -1.03201
C         -3.63260        3.11612       -0.38975
C         -3.45094        1.77885       -0.06510
C         -2.27835        1.13636       -0.38577
P         -1.90260       -0.53594        0.15291
C         -3.33489       -1.22421        1.01156
C         -3.53047       -1.04980        2.36156
C         -4.64245       -1.58921        2.97858
C         -5.56367       -2.29898        2.23522
C         -5.37442       -2.46566        0.87803
C         -4.25765       -1.92469        0.26674
H         -4.09929       -2.04765       -0.79282
H         -6.09427       -3.01634        0.29507
H         -6.43298       -2.71966        2.71382
H         -4.79269       -1.44967        4.03658
H         -2.82289       -0.46897        2.92601
C         -1.59865       -1.61745       -1.24732
C         -1.88765       -1.19765       -2.52544
C         -1.76308       -2.08062       -3.58224
C         -1.35548       -3.37917       -3.34846
C         -1.06859       -3.79584       -2.06353
C         -1.19460       -2.91085       -1.00769
H         -0.99439       -3.22536        0.00474
H         -0.74746       -4.80830       -1.88222
H         -1.25393       -4.06718       -4.17179
H         -1.98249       -1.75449       -4.58553
H         -2.21251       -0.18294       -2.68912
Pd         0.05365       -0.00336        1.40244
Cl        -1.40513        1.09074        2.72397
Cl         1.76855        0.77421        2.64829
H         -4.22196        1.24388        0.46199
C         -4.90953        3.80321       -0.05895
H         -5.69028        3.53360       -0.77129
H         -4.79343        4.88748       -0.08122
H         -5.25321        3.52734        0.93890
H         -2.71551        4.83585       -1.27850
S         -0.06939        4.03699       -2.10667
H          2.55570        4.84898       -1.21410
C          4.75312        3.80872       -0.02109
H          4.11684        1.21836        0.38124
H          5.48119        3.73128       -0.82954
H          4.57700        4.86726        0.17438
H          5.19792        3.37653        0.87627
