171
-217.84852993
P         -1.62948        0.43086       -0.31949
P          1.62243       -0.29845       -0.22315
C         -0.84815        1.48399       -1.55287
C          0.97446       -1.17509       -1.64991
C          0.01194        0.96363       -2.51450
C          0.67584        1.85273       -3.38163
C          0.43435        3.21209       -3.27490
C         -0.43755        3.70691       -2.32895
C         -1.07075        2.83692       -1.46376
C          1.20546       -2.52538       -1.74363
C          0.70168       -3.24240       -2.81138
C         -0.04297       -2.59773       -3.77654
C         -0.29004       -1.23701       -3.69817
C          0.23768       -0.50345       -2.61822
Cl         1.54496        0.49958        2.88434
Cl        -1.66806       -0.20640        2.88651
C         -1.08175       -0.56984       -4.76804
C          1.63817        1.36543       -4.40779
H         -0.61978        4.76685       -2.25919
H         -1.74306        3.21740       -0.71224
H          1.78478       -3.01922       -0.97991
H          0.89232       -4.30004       -2.89142
H          0.94430        3.88634       -3.94226
H         -0.44169       -3.15377       -4.60822
C         -3.45391       -3.43724       -1.79453
C         -2.57822       -3.47349       -0.71633
C         -2.01000       -2.27590       -0.30414
C         -2.30621       -1.10249       -0.95210
C         -3.17583       -1.08180       -2.01494
C         -3.77431       -2.25709       -2.45481
H         -3.91778       -4.34772       -2.12405
H         -1.34621       -2.25369        0.54308
H         -3.39282       -0.13803       -2.48558
C         -4.85595        2.66329        1.95449
C         -3.52948        3.02285        2.15720
C         -2.55475        2.34105        1.43959
C         -2.90403        1.33959        0.56759
C         -4.22027        0.99479        0.38430
C         -5.22814        1.65578        1.07397
H         -5.62131        3.17348        2.51000
H         -1.51122        2.56769        1.57547
H         -4.45455        0.19305       -0.29254
C          4.24684       -3.07836        2.22525
C          2.86707       -3.20006        2.32907
C          2.08242       -2.35765        1.55183
C          2.66141       -1.40603        0.74824
C          4.02708       -1.28144        0.68276
C          4.85115       -2.12467        1.41657
H          4.87105       -3.74490        2.79103
H          1.00942       -2.42771        1.58194
H          4.44695       -0.51444        0.05796
C          3.95720        3.41815       -1.31151
C          2.91557        3.52205       -0.39849
C          2.21631        2.36546       -0.07916
C          2.53352        1.17344       -0.68047
C          3.54800        1.09223       -1.60299
C          4.29078        2.22057       -1.93192
H          4.53951        4.29385       -1.53081
H          1.42316        2.38241        0.64774
H          3.75567        0.13935       -2.05931
Pd        -0.05096        0.08577        1.35987
C         -0.74330       -5.05662       -0.07972
C         -2.24875       -4.76410        0.04652
C         -3.02732       -5.97243       -0.50793
C         -2.62502       -4.58303        1.52959
H         -0.46632       -5.94009        0.49509
H         -0.47425       -5.23449       -1.12006
H         -0.14667       -4.21959        0.27839
H         -2.78627       -6.87638        0.05136
H         -4.10297       -5.81416       -0.43223
H         -2.77657       -6.15518       -1.55269
H         -2.08303       -3.75309        1.98035
H         -3.69009       -4.37662        1.63259
H         -2.39790       -5.48148        2.10313
C         -6.16208       -2.75076       -3.02601
C         -4.80864       -2.27880       -3.58952
C         -4.34387       -3.24757       -4.69297
C         -5.00377       -0.88176       -4.21043
H         -6.50042       -2.08727       -2.23062
H         -6.92587       -2.76263       -3.80336
H         -6.08991       -3.75645       -2.61348
H         -5.04697       -3.25548       -5.52569
H         -3.36795       -2.95698       -5.07902
H         -4.26286       -4.26708       -4.31813
H         -5.36931       -0.17070       -3.46992
H         -4.07147       -0.49952       -4.62351
H         -5.73299       -0.91697       -5.01971
C         -3.62692        3.64293        4.58037
C         -3.17782        4.10853        3.18353
C         -3.89674        5.41840        2.81190
C         -1.66170        4.38064        3.22404
H         -3.14004        2.70466        4.84585
H         -3.37333        4.38273        5.33936
H         -4.70379        3.48226        4.61620
H         -4.97899        5.29562        2.82529
H         -3.64389        6.21400        3.51256
H         -3.60879        5.74458        1.81261
H         -1.10863        3.48615        3.51021
H         -1.30235        4.71559        2.25182
H         -1.42641        5.15907        3.94962
C         -6.90036        0.16453       -0.13308
C         -6.70899        1.28762        0.90587
C         -7.49214        2.52614        0.43319
C         -7.26600        0.80290        2.25670
H         -7.95603       -0.08066       -0.24849
H         -6.52315        0.46656       -1.10989
H         -6.38288       -0.74492        0.17191
H         -8.54530        2.28827        0.28445
H         -7.43323        3.33445        1.16108
H         -7.09293        2.89608       -0.51106
H         -6.70635       -0.06094        2.61497
H         -7.19891        1.58223        3.01491
H         -8.31298        0.51398        2.16640
C          0.74376       -3.99589        3.47862
C          2.24966       -4.24865        3.26555
C          2.93635       -4.18901        4.64445
C          2.44199       -5.64380        2.64827
H          0.18888       -4.12252        2.55155
H          0.33042       -4.69782        4.20262
H          0.56600       -2.98730        3.85180
H          3.99044       -4.45480        4.58092
H          2.86571       -3.18593        5.06469
H          2.46601       -4.88075        5.34310
H          2.00564       -6.41571        3.28195
H          1.96693       -5.70069        1.66909
H          3.49993       -5.87100        2.51935
C          6.84236       -0.89008        0.42332
C          6.38204       -2.02247        1.36240
C          6.96240       -3.35138        0.84535
C          6.92185       -1.73231        2.77493
H          7.93009       -0.82657        0.39684
H          6.49763       -1.06210       -0.59604
H          6.46367        0.07502        0.75949
H          6.70616       -4.17912        1.50560
H          6.57263       -3.58117       -0.14618
H          8.04912       -3.30261        0.77814
H          8.00688       -1.63026        2.76480
H          6.49882       -0.80669        3.16482
H          6.66906       -2.53346        3.46837
C          2.40708        5.94465       -0.83327
C          2.59557        4.87216        0.25656
C          3.75907        5.26905        1.18147
C          1.30153        4.80064        1.09057
H          1.61897        5.65374       -1.52678
H          2.13202        6.90298       -0.39309
H          3.31980        6.09512       -1.40810
H          3.90995        4.51516        1.95394
H          4.68949        5.36584        0.62278
H          3.56083        6.22173        1.67223
H          1.05802        5.77587        1.51182
H          0.45993        4.48426        0.47487
H          1.40528        4.10204        1.92049
C          5.37787        3.26307       -3.95437
C          5.49462        2.16047       -2.88382
C          5.58477        0.79798       -3.59900
C          6.78224        2.37391       -2.06796
H          4.45371        3.16063       -4.52116
H          5.38819        4.25649       -3.50826
H          6.20905        3.21026       -4.65740
H          5.74071       -0.01178       -2.88684
H          4.67632        0.58979       -4.16333
H          6.42075        0.78297       -4.29816
H          6.88399        1.60703       -1.30083
H          7.66299        2.33019       -2.70838
H          6.77569        3.34363       -1.57115
H         -0.44569       -0.29939       -5.61174
H          2.55607        1.95232       -4.38228
H         -1.55985        0.33894       -4.39975
H         -1.86550       -1.22785       -5.14314
H          1.21611        1.44942       -5.41018
H          1.91088        0.32275       -4.24027
