111
-148.55572692
P         -1.77097       -2.72559       -0.50009
P         -0.50466        0.16759       -0.44349
C         -1.53925       -1.80934       -2.05096
C         -1.05903       -0.51733       -2.01609
C         -0.62458       -4.17609       -0.44500
C          0.38701       -4.01772        0.67052
C         -1.80941       -2.40808       -3.26513
H         -2.14263       -3.43254       -3.29061
C         -1.62557       -1.69945       -4.43989
H         -1.84079       -2.16570       -5.38748
C         -1.16074       -0.39888       -4.40013
H         -1.01244        0.15075       -5.31507
C         -0.86582        0.19047       -3.18401
H         -0.46750        1.19156       -3.13700
Pd        -1.53269       -1.13345        1.16698
Cl        -2.83350       -2.43017        2.45358
Cl        -1.18848        0.46372        2.70646
C         -1.57385       -5.37896       -0.27352
C         -3.40203       -3.60137       -0.41636
H         -0.11567       -3.91488        1.63440
H          1.05249       -4.88192        0.73266
H          1.00366       -3.12785        0.52778
H         -1.59598       -5.65985        0.78832
H         -1.17614       -6.25887       -0.80129
H         -3.72413       -3.53536        0.63067
C         -3.01922       -5.05467       -0.74822
C         -4.44882       -2.98650       -1.32098
H         -0.13093       -4.20909       -1.42501
H         -3.09510       -5.20461       -1.83383
H         -3.74524       -5.75242       -0.30347
H         -4.60509       -1.93175       -1.08363
H         -4.15070       -3.04499       -2.36788
H         -5.40795       -3.50057       -1.22609
C         -0.53028        4.71843       -0.33529
C         -1.56461        3.99893        0.31675
C         -1.55562        2.61602        0.23508
C         -0.53093        1.95384       -0.38799
C          0.52823        2.63966       -0.92330
C          0.57779        4.02323       -0.88306
O         -0.61821        6.13014       -0.46525
C         -2.68532        4.69532        1.10509
H         -2.34600        2.03160        0.67329
H          1.32565        2.07191       -1.37192
C          1.81511        4.74368       -1.44128
C          3.70792       -1.36193        0.38147
C          3.10883       -1.59847       -0.88454
C          1.84361       -1.08617       -1.11617
C          1.15469       -0.43175       -0.12912
C          1.67670       -0.31449        1.13155
C          2.93313       -0.80807        1.43521
O          5.09270       -1.60427        0.57042
C          3.77360       -2.40788       -2.01026
H          1.38016       -1.19566       -2.08123
H          1.06874        0.14677        1.89105
C          3.38491       -0.76254        2.90421
C         -3.18389        3.79048        2.25541
C         -2.18084        5.99976        1.74889
C         -3.86375        4.99034        0.16533
C          2.08598        6.05241       -0.67715
C          3.07603        3.86226       -1.28529
C          1.60223        5.03654       -2.93405
C         -1.29320        6.56317       -1.63943
H         -2.35079        3.45092        2.87033
H         -3.87799        4.32959        2.89962
H         -3.71094        2.91452        1.88056
H         -2.95519        6.45923        2.36266
H         -1.31636        5.80492        2.38269
H         -1.88501        6.72554        0.99542
H         -4.24700        4.06919       -0.27298
H         -4.67950        5.47385        0.70220
H         -3.56366        5.64467       -0.64963
H          2.19365        5.85841        0.38951
H          2.99984        6.53018       -1.02940
H          1.27308        6.76268       -0.80638
H          3.97295        4.41862       -1.55659
H          3.18949        3.52648       -0.25473
H          3.03793        2.98502       -1.92950
H          2.46998        5.53854       -3.36122
H          1.43947        4.11256       -3.48853
H          0.73474        5.67324       -3.09067
H         -1.62604        5.70560       -2.22552
H         -2.15432        7.17117       -1.36263
H         -0.62285        7.17663       -2.24114
C          5.89124       -0.47275        0.26741
C          2.75902       -3.42261       -2.58274
C          4.21829       -1.45189       -3.12916
C          4.98440       -3.21660       -1.51352
C          4.61232       -1.65178        3.16710
C          3.70829        0.68913        3.29353
C          2.24457       -1.28816        3.80524
H          3.22418       -4.04932       -3.34316
H          2.38380       -4.07507       -1.79513
H          1.90695       -2.92888       -3.04693
H          4.67563       -2.00090       -3.95187
H          3.36949       -0.89635       -3.52691
H          4.94537       -0.72977       -2.76207
H          5.38170       -3.85432       -2.30284
H          5.78747       -2.56138       -1.18435
H          4.70424       -3.85011       -0.67261
H          5.48685       -1.28304        2.63624
H          4.85788       -1.67901        4.22845
H          4.42547       -2.67229        2.83458
H          4.00795        0.75438        4.33913
H          4.51918        1.08713        2.68618
H          2.84030        1.33247        3.15235
H          1.36874       -0.64259        3.77026
H          2.56481       -1.34283        4.84526
H          1.93844       -2.28678        3.49475
H          6.93927       -0.71376        0.44650
H          5.75952       -0.19188       -0.77646
H          5.60191        0.36783        0.89640
