115
-277.94036116
P         -2.05896       -0.38498       -0.03794
P          1.57638        0.66834       -0.30592
C         -1.83225       -2.16445        0.16880
C         -2.90034       -2.99795       -0.08267
H         -3.88117       -2.57971       -0.24803
C         -2.68633       -4.35219       -0.23680
H         -3.48647       -4.99862       -0.55906
C         -1.40943       -4.87547       -0.11175
C         -0.37304       -4.04741        0.28349
H          0.61628       -4.46893        0.37452
C         -0.58424       -2.69232        0.42584
H          0.24038       -2.04921        0.68378
C         -3.59648        0.15706        0.73030
C         -4.14507        1.34510        0.30639
H         -3.66022        1.91085       -0.47247
C         -5.31464        1.80426        0.87447
H         -5.75781        2.73489        0.55619
C         -5.93817        1.07829        1.87098
C         -5.37612       -0.10910        2.29705
H         -5.86380       -0.65585        3.08868
C         -4.20847       -0.57170        1.72398
H         -3.75885       -1.48856        2.06959
C         -1.95316        0.25533       -1.74686
C         -1.42409        1.53350       -1.79651
H         -1.08084        1.99661       -0.88660
C         -1.17737        2.17169       -3.01229
C         -1.69253        1.58689       -4.16287
H         -1.55023        2.07647       -5.11180
C         -2.22868        0.31583       -4.12175
H         -2.50378       -0.17057       -5.04222
C         -2.25929       -0.41784       -2.93619
C          1.21737        0.24306       -2.04926
C          0.66851       -1.02013       -2.14783
H          0.45929       -1.56861       -1.24839
C          0.22489       -1.53457       -3.36454
C          0.55605       -0.83436       -4.51782
H          0.26186       -1.22694       -5.47679
C          1.10655        0.42869       -4.43242
H          1.23773        1.00738       -5.33112
C          1.33448        1.03867       -3.19836
C         -2.28625       -1.92461       -3.05492
H         -3.01631       -2.20765       -3.82140
H         -2.68651       -2.34247       -2.13423
C         -0.88130       -2.55625       -3.38354
H         -0.63885       -3.36260       -2.68322
H         -0.89835       -3.04538       -4.36385
C         -0.08287        3.20090       -3.12203
H         -0.15814        3.90629       -2.28816
H         -0.25602        3.81675       -4.01186
C          1.34895        2.55128       -3.17707
H          1.89512        2.91792       -4.05427
H          1.95320        2.90079       -2.34378
C          2.19676        2.35314       -0.21316
C          3.46816        2.61597       -0.67892
C          1.33235        3.38295        0.08921
C          3.82507        3.91699       -0.97756
C          1.69861        4.68325       -0.18949
C          2.91552        4.94942       -0.79566
C          2.88062       -0.40957        0.32388
C          3.50024       -1.29210       -0.53152
C          3.27246       -0.33796        1.63932
C          4.50906       -2.11085       -0.06590
H          3.20004       -1.33689       -1.56537
C          4.27951       -1.15375        2.10627
H          2.79068        0.36092        2.30279
C          4.89985       -2.04982        1.25694
H          5.01237       -2.80465       -0.72066
H          4.60193       -1.10223        3.13451
Pd        -0.24224        0.48392        1.17367
Cl        -1.61613       -0.05059        2.87386
Cl         1.17962        1.63499        2.48948
H          0.99872        5.49500       -0.06386
H          0.34904        3.17038        0.47562
H          4.76412        4.12646       -1.46413
H          4.13481        1.79933       -0.90862
C         -2.23636       -7.22348       -0.59141
C         -1.06036       -6.21160       -0.71674
C         -0.67237       -5.91768       -2.19973
F         -2.61305       -7.25234        0.69555
F         -3.26249       -6.82016       -1.35334
F         -1.81419       -8.43757       -0.97755
F          0.00419       -6.73442       -0.10339
F         -0.44243       -7.06670       -2.84930
F         -1.66287       -5.22634       -2.77952
F          0.43050       -5.15649       -2.18211
C         -6.84826        2.82164        3.40353
C         -7.19931        1.59125        2.51840
C         -8.25553        1.92924        1.42505
F         -6.26554        3.76105        2.64448
F         -7.96691        3.29790        3.97062
F         -5.99051        2.40617        4.34787
F         -7.72361        0.65351        3.31223
F         -7.82258        2.96140        0.68779
F         -8.39447        0.84407        0.64875
F         -9.42291        2.22851        2.01500
C          7.30769       -2.04432        1.89072
C          6.03060       -2.91975        1.74341
C          5.63095       -3.61933        3.07590
F          7.05593       -1.03409        2.73615
F          8.31874       -2.80099        2.34359
F          7.60101       -1.55573        0.67605
F          6.29291       -3.87525        0.84740
F          5.51636       -2.70269        4.04707
F          4.44774       -4.21972        2.87712
F          6.56472       -4.52895        3.39462
C          4.52307        6.64603       -1.78598
C          3.03706        6.24203       -1.56465
C          2.26570        6.01295       -2.90441
F          5.12755        6.64603       -0.58864
F          5.11748        5.75598       -2.59248
F          4.56851        7.87344       -2.32706
F          2.43256        7.23151       -0.90266
F          2.38504        7.09214       -3.68911
F          2.75420        4.92225       -3.51037
F          0.97981        5.79661       -2.59513
