111
-148.55711048
P         -2.49497       -2.08671       -0.52424
P          0.08674       -0.26085       -0.45913
C         -1.61232       -1.72695       -2.06594
C         -0.47207       -0.95495       -2.02606
C         -3.17181       -3.80842       -0.51457
C         -2.34442       -4.72305        0.36211
C         -2.07332       -2.21181       -3.27333
H         -2.97740       -2.79737       -3.30327
C         -1.37991       -1.93101       -4.43801
H         -1.73823       -2.31024       -5.38112
C         -0.23151       -1.16400       -4.39372
H          0.30786       -0.94476       -5.30047
C          0.22157       -0.67017       -3.18350
H          1.11163       -0.06285       -3.13240
Pd        -1.06976       -1.44456        1.16947
Cl        -2.50419       -2.32888        2.64506
Cl         0.43884       -0.68686        2.64743
C         -4.62126       -3.59567       -0.03924
C         -4.05573       -1.11194       -0.33314
H         -1.30842       -4.77203        0.01819
H         -2.33012       -4.36456        1.39230
H         -2.74760       -5.73838        0.37267
H         -4.65176       -3.70055        1.05417
H         -5.27462       -4.39012       -0.43118
H         -4.02890       -0.68903        0.67998
C         -5.15295       -2.18873       -0.43819
C         -4.14723       -0.01679       -1.37487
H         -3.15953       -4.15806       -1.55449
H         -5.52142       -2.21786       -1.47283
H         -6.02255       -1.90962        0.17599
H         -5.07481        0.55201       -1.27700
H         -3.31032        0.68096       -1.29464
H         -4.12289       -0.43857       -2.38134
C         -1.39752        4.04716       -0.29984
C         -1.92928        3.08447        0.59456
C         -1.45879        1.78572        0.51310
C         -0.44840        1.44703       -0.34907
C          0.14179        2.39759       -1.14089
C         -0.28327        3.71641       -1.11264
O         -2.00484        5.32649       -0.40893
C         -3.01705        3.41833        1.62787
H         -1.89115        1.01744        1.12784
H          0.93700        2.08985       -1.79750
C          0.43549        4.75533       -1.98786
C          4.52183       -0.91090        0.32884
C          3.93324        0.34008        0.64558
C          2.58203        0.51134        0.39331
C          1.84669       -0.47051       -0.21681
C          2.43464       -1.64070       -0.62108
C          3.78240       -1.87551       -0.40242
O          5.83178       -1.21763        0.78366
C          4.71959        1.48679        1.29944
H          2.07539        1.41067        0.69745
H          1.81628       -2.38112       -1.09945
C          4.40837       -3.17936       -0.92118
C         -2.88696        4.87161        2.11850
C         -4.40220        3.19112        1.00405
C         -2.88344        2.50923        2.87184
C          1.92520        4.38533       -2.16245
C         -0.22661        4.79615       -3.37334
C          0.39752        6.15153       -1.33973
C         -3.05200        5.38970       -1.36914
H         -3.04978        5.57965        1.30981
H         -3.61634        5.08894        2.89839
H         -1.89213        5.05144        2.52461
H         -4.52181        2.15153        0.70116
H         -5.19373        3.42720        1.71477
H         -4.54535        3.81157        0.12266
H         -3.56085        2.83235        3.66185
H         -3.13086        1.47334        2.64468
H         -1.86863        2.53996        3.26747
H          2.05147        3.47448       -2.74556
H          2.46183        5.17676       -2.68523
H          2.40113        4.24344       -1.19322
H         -1.27537        5.07425       -3.30063
H          0.26897        5.51799       -4.02203
H         -0.17546        3.81921       -3.85357
H          0.96672        6.87179       -1.92686
H         -0.62024        6.52492       -1.25960
H          0.82186        6.12034       -0.33673
H         -3.97971        5.68606       -0.87993
H         -2.81120        6.13811       -2.12395
H         -3.18741        4.41971       -1.84930
C          5.86596       -1.82178        2.07081
C          4.16176        2.85408        0.84478
C          4.58754        1.38171        2.82630
C          6.20360        1.45533        0.89038
C          4.26209       -4.27358        0.14703
C          3.69664       -3.64874       -2.21059
C          5.89315       -2.98017       -1.27622
H          4.78434        3.66855        1.21439
H          4.14093        2.91628       -0.24267
H          3.15415        3.02676        1.21958
H          4.98719        0.43856        3.19172
H          5.12392        2.19041        3.32194
H          3.54133        1.43534        3.12652
H          6.30308        1.48175       -0.19423
H          6.74151        2.30924        1.30145
H          6.69610        0.55481        1.24784
H          4.68367       -5.21674       -0.19961
H          4.77092       -3.99639        1.06714
H          3.21214       -4.44034        0.38658
H          3.67086       -2.85008       -2.95153
H          4.21695       -4.49837       -2.65222
H          2.67404       -3.96744       -2.01439
H          6.00979       -2.17496       -2.00080
H          6.31872       -3.88709       -1.70502
H          6.48053       -2.72557       -0.39753
H          4.85331       -1.95967        2.45216
H          6.36588       -2.78820        2.00754
H          6.42929       -1.19085        2.75805
