111
-148.55707826
P         -2.45543       -2.48389       -0.51490
P         -0.10462       -0.35535       -0.48363
C         -1.67424       -1.98647       -2.06800
C         -0.69409       -1.01867       -2.05541
C         -2.51334       -4.32067       -0.32094
C         -1.57067       -4.76369        0.77699
C         -2.09408       -2.53123       -3.26443
H         -2.85885       -3.29112       -3.26314
C         -1.53796       -2.09097       -4.45313
H         -1.86536       -2.51393       -5.38881
C         -0.57377       -1.10131       -4.44158
H         -0.14856       -0.75016       -5.36737
C         -0.15306       -0.56130       -3.23936
H          0.58916        0.22140       -3.21621
Pd        -1.46373       -1.26416        1.17147
Cl        -3.12626       -1.89979        2.53935
Cl        -0.47598        0.04603        2.70673
C         -4.00105       -4.59832       -0.03202
C         -4.26819       -2.09681       -0.49838
H         -1.83852       -4.29541        1.72647
H         -1.60435       -5.84640        0.92020
H         -0.53879       -4.48202        0.55248
H         -4.14337       -4.65406        1.05601
H         -4.28844       -5.58819       -0.41776
H         -4.47432       -1.66146        0.48825
C         -4.91959       -3.48696       -0.61390
C         -4.65219       -1.12679       -1.59602
H         -2.21945       -4.74641       -1.28923
H         -5.12322       -3.69623       -1.67301
H         -5.90256       -3.49072       -0.11880
H         -5.71407       -0.87398       -1.55255
H         -4.07877       -0.20022       -1.52485
H         -4.45688       -1.55431       -2.58044
C         -0.81749        4.12228       -0.12542
C          0.46860        3.63676       -0.47570
C          0.64719        2.26716       -0.56721
C         -0.40353        1.40397       -0.40092
C         -1.67099        1.87099       -0.17408
C         -1.91818        3.22911       -0.05923
O         -0.99646        5.49444        0.19459
C          1.67485        4.55802       -0.71645
H          1.62223        1.85140       -0.75370
H         -2.46612        1.15440       -0.06346
C         -3.35710        3.70650        0.19064
C          4.38492       -0.84335        0.15668
C          3.82591       -1.19807       -1.09744
C          2.45702       -1.07373       -1.26593
C          1.64605       -0.67935       -0.23269
C          2.17495       -0.44388        1.00910
C          3.53187       -0.55981        1.25276
O          5.79316       -0.72703        0.29998
C          4.68848       -1.65123       -2.28542
H          2.00844       -1.26547       -2.22298
H          1.50163       -0.14515        1.79227
C          4.05110       -0.33241        2.68075
C          2.65027        3.92326       -1.73502
C          1.23301        5.91084       -1.30293
C          2.42407        4.76986        0.60804
C         -3.61170        3.77257        1.70438
C         -3.60411        5.08289       -0.45270
C         -4.37662        2.72675       -0.43381
C         -0.78032        5.80225        1.56617
H          3.43653        4.62689       -2.00766
H          3.14067        3.03952       -1.32916
H          2.12651        3.63710       -2.64675
H          2.09367        6.53934       -1.53042
H          0.66792        5.76358       -2.22271
H          0.60090        6.45805       -0.60835
H          1.78274        5.23034        1.35556
H          2.77029        3.81803        1.01034
H          3.29269        5.41256        0.46700
H         -3.45949        2.79554        2.16268
H         -2.93535        4.47268        2.18825
H         -4.63247        4.08998        1.91557
H         -4.64100        5.39368       -0.32729
H         -2.97528        5.84873       -0.00559
H         -3.38563        5.05226       -1.51961
H         -4.38603        1.77068        0.08755
H         -5.38704        3.13078       -0.37559
H         -4.14861        2.54631       -1.48400
H         -1.67847        6.25673        1.98410
H         -0.53585        4.89773        2.12466
H          0.03624        6.51818        1.65752
C          6.29217        0.58113        0.04886
C          3.88936       -2.59314       -3.21459
C          5.12350       -0.41934       -3.09401
C          5.92403       -2.43473       -1.80632
C          4.30517        1.16771        2.89397
C          3.00866       -0.80953        3.71830
C          5.33908       -1.13420        2.94148
H          3.45530       -3.41795       -2.65008
H          3.08562       -2.06753       -3.72812
H          4.53522       -3.01708       -3.98322
H          5.72512       -0.70967       -3.95494
H          4.25489        0.12909       -3.45804
H          5.71392        0.26236       -2.48660
H          6.58336       -1.80929       -1.20954
H          5.62555       -3.28512       -1.19420
H          6.50170       -2.81016       -2.65061
H          4.66926        1.36267        3.90233
H          5.04245        1.54721        2.19034
H          3.38710        1.73721        2.75079
H          2.11735       -0.18430        3.71404
H          2.70605       -1.83708        3.51880
H          3.42031       -0.77132        4.72650
H          5.66805       -1.02244        3.97432
H          6.15135       -0.80195        2.30028
H          5.17585       -2.19429        2.75029
H          7.03833        0.54047       -0.74456
H          5.48138        1.24773       -0.24809
H          6.77139        0.97068        0.94678
