105
-153.06895376
Cl        -0.45721        2.02345       -2.96369
Pd         0.36851        1.16285       -1.04927
P          1.42406        0.52463        0.93713
N          1.27276       -1.06218        1.67499
C          0.24275       -1.99914        1.54074
C         -0.18440       -2.49461        0.28024
C         -1.18968       -3.48197        0.23244
C         -1.61134       -4.02848       -1.11123
C         -2.44101       -5.32008       -1.04491
C         -3.50483       -5.23193        0.05283
C         -2.84981       -5.00638        1.42353
C         -1.75971       -3.96387        1.41378
C         -1.30063       -3.48784        2.63488
C         -0.31663       -2.53710        2.69973
H          0.02472       -2.17741        3.65471
H         -1.73462       -3.87461        3.54146
H         -3.60729       -4.71857        2.16386
H         -4.18572       -4.40029       -0.16777
H         -2.90321       -5.53840       -2.01801
H         -2.18421       -3.25340       -1.63307
C          0.53679       -2.14192       -0.96775
C         -0.17271       -1.54164       -2.04668
C          0.47690       -1.39539       -3.27612
C          1.77670       -1.79645       -3.43842
C          2.48589       -2.38572       -2.39930
C          3.89972       -2.83521       -2.67267
C          4.41639       -3.88594       -1.67929
C          4.08770       -3.48019       -0.24027
C          2.57304       -3.30332       -0.04355
C          1.86789       -2.56612       -1.15887
H          2.09863       -4.28498        0.07272
H          4.59959       -2.53958       -0.00219
H          5.49746       -4.04287       -1.80264
H          4.55581       -1.95732       -2.66025
H          2.26437       -1.65799       -4.38855
H         -0.05002       -0.92641       -4.08852
N         -1.46804       -1.02505       -1.89862
P         -1.70516        0.14343       -0.59937
C         -2.56036       -0.49230        0.83206
C         -3.61947       -1.35258        0.67489
C         -4.31991       -1.78260        1.78775
C         -3.96227       -1.34932        3.05802
C         -2.90979       -0.45251        3.18789
C         -2.21314       -0.02262        2.07347
H         -1.39640        0.67272        2.16176
H         -2.63658       -0.09530        4.16598
C         -4.71731       -1.80964        4.25557
H         -5.14895       -2.46016        1.67563
H         -3.89196       -1.68093       -0.31550
C         -2.67340        1.56339       -1.12257
C         -2.46729        2.76765       -0.49121
C         -3.20667        3.87425       -0.86659
C         -4.15688        3.77929       -1.87442
C         -4.36521        2.54836       -2.48240
C         -3.62427        1.44245       -2.10683
H         -3.79108        0.48516       -2.57301
H         -5.11189        2.46157       -3.25316
C         -4.96737        4.96518       -2.26698
H         -3.04722        4.82052       -0.37852
H         -1.72440        2.83977        0.28818
H         -1.84238       -0.57541       -2.72412
H          1.70740       -0.96651        2.58381
C          0.82822        1.81246        2.03749
C          0.73714        3.10038        1.56463
C          0.23580        4.10045        2.37574
C         -0.16400        3.81911        3.67507
C         -0.05384        2.51558        4.14021
C          0.44747        1.51732        3.32526
H          0.51972        0.50386        3.68309
H         -0.37052        2.28590        5.14331
C         -0.73729        4.88592        4.54146
H          0.15151        5.10693        2.00288
H          1.07056        3.31656        0.56212
C          3.18490        0.76128        0.69345
C          3.81040        0.12623       -0.35031
C          5.16837        0.29798       -0.54730
C          5.90970        1.09962        0.30968
C          5.25824        1.73747        1.35671
C          3.89948        1.56546        1.54920
H          3.39187        2.05987        2.36176
H          5.82117        2.37375        2.01806
C          7.36646        1.30766        0.08234
H          5.66127       -0.18575       -1.37291
H          3.22817       -0.49300       -1.01186
Cl         2.19017        2.45400       -1.41268
H         -2.42627       -5.94919        1.78981
H         -1.77682       -6.16862       -0.83810
H         -4.13347       -6.13364        0.06137
H         -0.71466       -4.19128       -1.72248
H          4.48823       -4.21691        0.47045
H          2.39040       -2.77864        0.89981
H          3.95581       -3.22490       -3.69726
H          3.95077       -4.85509       -1.89868
H         -5.55116       -1.13964        4.46929
H         -5.12022       -2.81224        4.10502
H         -4.07517       -1.84090        5.13696
H         -5.88735        5.01643       -1.68308
H         -4.41378        5.89120       -2.10563
H         -5.23980        4.92316       -3.32247
H         -1.82492        4.90739        4.46016
H         -0.48089        4.72171        5.58903
H         -0.35931        5.86941        4.25877
H          7.88995        1.48877        1.02214
H          7.82069        0.43342       -0.38619
H          7.53724        2.16566       -0.56922
