105
-153.07228940
Cl        -0.82293        2.12627       -2.87517
Pd         0.07547        1.52749       -0.90455
P          1.34659        0.72875        0.87947
N          0.65780       -0.52258        1.90119
C          0.04486       -1.74521        1.66957
C         -0.09785       -2.32957        0.38732
C         -0.83879       -3.52113        0.24620
C         -0.98211       -4.12268       -1.13264
C         -1.53544       -5.55639       -1.15256
C         -2.69386       -5.71446       -0.16346
C         -2.23300       -5.39114        1.26571
C         -1.41176       -4.13066        1.36421
C         -1.21397       -3.56838        2.61820
C         -0.50189       -2.40697        2.76871
H         -0.38628       -1.96975        3.74526
H         -1.64695       -4.04894        3.47922
H         -3.09946       -5.30256        1.93365
H         -3.50729       -5.03510       -0.44724
H         -1.84964       -5.83939       -2.16712
H         -1.63161       -3.46871       -1.72628
C          0.67310       -1.84865       -0.78478
C          0.00351       -1.23550       -1.87815
C          0.71802       -1.02062       -3.05998
C          2.02825       -1.40714       -3.17431
C          2.68466       -2.04572       -2.12931
C          4.09053       -2.53920       -2.34995
C          4.44064       -3.73950       -1.45947
C          4.11827       -3.42792        0.00490
C          2.63560       -3.06156        0.19713
C          2.00964       -2.26699       -0.92765
H          2.05058       -3.97948        0.33022
H          4.74675       -2.59423        0.33700
H          5.49614       -4.02309       -1.57810
H          4.78958       -1.71798       -2.15825
H          2.55995       -1.23177       -4.09413
H          0.22557       -0.52915       -3.88054
N         -1.33356       -0.82529       -1.80686
P         -1.83895        0.18746       -0.45058
C         -2.79556       -0.73779        0.74879
C         -3.56610       -1.78038        0.29373
C         -4.36492       -2.48189        1.17888
C         -4.39342       -2.13985        2.52403
C         -3.63109       -1.06278        2.95677
C         -2.83663       -0.35971        2.06951
H         -2.24453        0.47528        2.40415
H         -3.66123       -0.77996        3.99512
C         -5.25230       -2.89146        3.47999
H         -4.96923       -3.30139        0.82962
H         -3.53465       -2.04119       -0.75230
C         -2.96005        1.47988       -1.00286
C         -2.93627        2.71035       -0.38947
C         -3.80314        3.70253       -0.80928
C         -4.70761        3.46325       -1.83503
C         -4.71835        2.21236       -2.43749
C         -3.84958        1.22127       -2.01752
H         -3.86459        0.24601       -2.47685
H         -5.40904        2.02020       -3.24069
C         -5.61847        4.54151       -2.30944
H         -3.77830        4.67314       -0.34407
H         -2.23560        2.89442        0.40936
H         -1.67711       -0.34881       -2.63088
H          0.85553       -0.27094        2.86218
C          1.29969        2.22588        1.87347
C          0.08133        2.63592        2.35960
C         -0.00814        3.79853        3.10338
C          1.12375        4.56114        3.35774
C          2.34664        4.12610        2.86406
C          2.43266        2.96385        2.12012
H          3.37830        2.63513        1.72155
H          3.23143        4.70664        3.06216
C          1.03255        5.80225        4.17562
H         -0.96005        4.12175        3.48883
H         -0.79515        2.04574        2.14885
C          3.07590        0.37638        0.56330
C          3.66670        0.69666       -0.63548
C          5.01848        0.47406       -0.81861
C          5.79170       -0.05929        0.20329
C          5.17995       -0.36902        1.41051
C          3.82562       -0.14852        1.58940
H          3.34832       -0.37908        2.52879
H          5.76905       -0.78851        2.20807
C          7.23916       -0.33670       -0.00785
H          5.48302        0.71982       -1.75831
H          3.07259        1.13748       -1.41843
Cl         1.73248        3.03876       -1.09969
H         -1.64127       -6.22521        1.66132
H         -0.73515       -6.25851       -0.88685
H         -3.12084       -6.72585       -0.21930
H         -0.00623       -4.09379       -1.63340
H          4.39529       -4.27353        0.64996
H          2.50586       -2.50052        1.13056
H          4.22242       -2.79664       -3.40864
H          3.86023       -4.61320       -1.78178
H         -5.41707       -3.91520        3.14092
H         -4.79027       -2.94101        4.46704
H         -6.22580       -2.41107        3.58679
H         -5.88096        5.22096       -1.49735
H         -5.14550        5.12711       -3.09889
H         -6.54602        4.12728       -2.70707
H          1.81873        6.50946        3.90766
H          0.07427        6.30173        4.02631
H          1.13207        5.57460        5.23779
H          7.67855        0.37646       -0.70667
H          7.79440       -0.26729        0.92857
H          7.38584       -1.33901       -0.41290
