100
-131.96430391
C         -3.14352       -2.79758       -1.47289
C         -1.97617       -3.40096       -0.82340
C         -2.81542       -1.46653       -1.84312
C         -1.41198       -1.17065       -1.42449
C         -0.57534       -0.29795       -2.31348
C         -0.92160       -2.43354       -0.76638
C          0.48353       -2.82869       -0.33743
C          1.06291       -3.88835       -1.25080
Cl        -0.49815        1.47047        2.61425
Cl         0.46245       -1.61747        2.68693
C          0.70619        1.27582       -4.25534
C          0.23395        0.02140       -4.58813
C          0.55060        1.74575       -2.95921
C         -0.40097       -0.74443       -3.64248
C         -0.05266        0.97570       -1.99393
H         -1.90341       -4.43382       -0.47746
H         -3.43997       -0.80776       -2.45069
H          1.17381       -3.49879       -2.26453
H          2.03883       -4.23291       -0.90192
H          0.40954       -4.76199       -1.31272
H          1.19210        1.88722       -4.99792
H          0.35235       -0.34960       -5.59332
H          0.89973        2.73526       -2.70894
H         -0.79253       -1.71107       -3.90973
H         -4.08185       -3.31060       -1.69913
P         -0.13205        1.73169       -0.36162
H          0.39375       -3.23982        0.67754
P          1.71464       -1.45144       -0.10273
H          1.70590       -0.78018       -2.38041
C          3.55177       -1.89531       -2.32416
C          2.52322       -0.94443       -1.68259
C          3.48624       -1.79904       -3.85242
H          3.52444       -2.85027        0.55595
C          3.99596       -0.99567        1.57906
C          2.99840       -2.04781        1.07556
H          4.28888       -0.37258        0.71555
C          3.39426       -0.07435        2.64334
H          1.04672        3.78782       -0.78998
H         -1.94428        2.69362        0.88966
C         -4.22338        2.50436       -0.76058
C         -2.85587        1.80160       -0.85984
C         -1.74976        2.62013       -0.18744
C         -1.68245        4.03092       -0.79409
C         -3.04628        4.74773       -0.71454
C         -4.15446        3.91135       -1.38098
H         -4.51191        2.58868        0.29441
H         -5.00927        1.90112       -1.23639
H         -2.59397        1.66153       -1.91631
H         -2.88658        0.79336       -0.43188
H         -0.90685        4.62858       -0.29774
H         -1.36645        3.94792       -1.84125
H         -3.30387        4.91760        0.33832
H         -2.98699        5.74762       -1.16696
H         -3.94786        3.82474       -2.45519
H         -5.12656        4.41940       -1.30823
C          3.75655        3.38047       -0.19329
C          2.61740        2.36668       -0.42460
C          1.24358        2.96489       -0.09274
C          1.22866        3.51983        1.33840
C          2.34418        4.55973        1.55124
C          3.72085        3.94483        1.23903
H          3.65981        4.20441       -0.91125
H          4.73207        2.92021       -0.40502
H          2.77659        1.48063        0.19881
H          2.63108        2.01217       -1.46254
H          0.24123        3.93100        1.58754
H          1.38007        2.68845        2.03602
H          2.17016        5.41836        0.89093
H          2.31496        4.96223        2.57348
H          3.92790        3.13726        1.95241
H          4.52195        4.68230        1.38970
H          3.29076       -2.92676       -2.03764
C          4.97539       -1.61862       -1.83688
H          2.49622       -2.51740        1.92120
C          5.25456       -1.67337        2.13320
H          2.98790        0.02505       -1.52178
H          4.19916       -2.47435       -4.32800
H          3.72027       -0.78630       -4.18233
H          2.49157       -2.04468       -4.22803
H          5.26533       -0.59061       -2.05691
H          5.07566       -1.76751       -0.76384
H          5.69737       -2.27384       -2.32701
H          2.56644        0.51678        2.25865
H          3.01761       -0.65447        3.48608
H          4.13827        0.62293        3.03163
H          5.99441       -0.93963        2.45699
H          5.00566       -2.29163        2.99628
H          5.72774       -2.32092        1.39382
Fe        -2.65790       -1.74124        0.18699
C         -2.53885       -2.06587        2.24343
C         -3.56224       -2.89552        1.64219
C         -4.52573       -2.02128        0.99985
C         -4.10155       -0.65126        1.20858
C         -2.86740       -0.68087        1.96731
H         -1.65198       -2.42056        2.76891
H         -3.60934       -3.98639        1.68093
H         -5.43616       -2.33838        0.48548
H         -4.65297        0.24001        0.90321
H         -2.26787        0.18190        2.26121
Pd         0.35157       -0.00084        1.11763
