111
-148.55661104
P         -2.52630       -2.00518       -1.21332
P          0.12837       -0.43299       -0.52413
C         -1.34687       -1.61332       -2.53326
C         -0.17143       -0.96579       -2.21969
C         -3.32209       -3.65752       -1.45932
C         -2.77840       -4.67904       -0.48435
C         -1.62190       -1.94334       -3.84486
H         -2.55115       -2.43210       -4.08783
C         -0.71089       -1.62954       -4.83890
H         -0.92466       -1.88630       -5.86360
C          0.46951       -0.98534       -4.52056
H          1.17698       -0.73882       -5.29509
C          0.73852       -0.64841       -3.20611
H          1.64714       -0.13060       -2.94122
Pd        -1.40861       -1.59235        0.75886
Cl        -3.17879       -2.36702        1.89711
Cl        -0.17989       -1.13214        2.58483
C         -4.82113       -3.34457       -1.29339
C         -4.02056       -0.91456       -1.21164
H         -1.69902       -4.80340       -0.60039
H         -2.96289       -4.36840        0.54512
H         -3.24996       -5.65466       -0.62367
H         -5.10531       -3.52873       -0.24813
H         -5.42765       -4.04141       -1.89168
H         -4.17427       -0.61186       -0.16709
C         -5.14283       -1.86794       -1.66242
C         -3.82276        0.29574       -2.09807
H         -3.10620       -3.95728       -2.49270
H         -5.26535       -1.78048       -2.75078
H         -6.10621       -1.55607       -1.23103
H         -2.98675        0.90605       -1.75018
H         -3.60362       -0.00645       -3.12384
H         -4.71507        0.92564       -2.12006
C         -1.09207        3.91295        0.06197
C         -0.97430        3.39495       -1.25374
C         -0.59530        2.07192       -1.40663
C         -0.41046        1.26160       -0.31784
C         -0.62434        1.72959        0.95071
C         -1.00600        3.03994        1.17646
O         -1.25476        5.30931        0.26412
C         -1.20823        4.25474       -2.50559
H         -0.42408        1.65777       -2.38437
H         -0.47618        1.04596        1.76853
C         -1.28276        3.49427        2.61754
C          4.43518       -0.74724        0.90470
C          3.95652        0.46785        0.35120
C          2.63897        0.51922       -0.07131
C          1.83739       -0.59144       -0.02733
C          2.32637       -1.79631        0.40265
C          3.63405       -1.91683        0.84437
O          5.69729       -0.78259        1.55514
C          4.81939        1.73502        0.24648
H          2.20950        1.44196       -0.42220
H          1.65919       -2.64099        0.41338
C          4.14248       -3.29304        1.30092
C         -1.71555        3.38710       -3.68013
C         -2.28047        5.32892       -2.24800
C          0.11538        4.91475       -2.92089
C          0.02825        3.97679        3.25682
C         -2.33802        4.61423        2.65496
C         -1.84042        2.32232        3.45843
C         -0.03030        6.02000        0.39999
H         -1.98887        4.01092       -4.53085
H         -0.95428        2.69022       -4.02742
H         -2.59684        2.81677       -3.38891
H         -3.20901        4.87036       -1.90945
H         -1.96014        6.03488       -1.48586
H         -2.49263        5.89613       -3.15395
H          0.50085        5.55592       -2.13184
H          0.87211        4.15979       -3.13345
H         -0.01539        5.52334       -3.81530
H          0.76982        3.17816        3.26339
H          0.45027        4.81467        2.70696
H         -0.13340        4.29612        4.28602
H         -3.25644        4.29193        2.16545
H         -2.57939        4.89116        3.68088
H         -1.98628        5.50867        2.14714
H         -2.16069        2.66865        4.44068
H         -2.69992        1.86699        2.96720
H         -1.09140        1.54908        3.62183
H          0.81741        5.34015        0.30469
H          0.03258        6.78956       -0.36924
H          0.00377        6.50875        1.37348
C          5.64092       -0.47567        2.94279
C          4.38242        2.59304       -0.96339
C          4.64966        2.57096        1.52443
C          6.30246        1.38222        0.03297
C          5.65196       -3.44436        1.03935
C          3.84168       -3.47150        2.79700
C          3.43561       -4.42336        0.51874
H          4.36671        1.99708       -1.87556
H          3.39276        3.02370       -0.81764
H          5.07160        3.42301       -1.11776
H          5.24301        3.48366        1.47581
H          3.60627        2.85345        1.66394
H          4.96128        2.01388        2.40468
H          6.90332        2.28086       -0.10450
H          6.70908        0.84222        0.88422
H          6.42409        0.75452       -0.84918
H          6.22974       -2.73170        1.62238
H          5.99738       -4.44326        1.30463
H          5.87766       -3.27561       -0.01305
H          4.34046       -2.71118        3.39300
H          2.77155       -3.39011        2.98641
H          4.17444       -4.44753        3.14909
H          2.37958       -4.49234        0.77540
H          3.88319       -5.39029        0.74754
H          3.51880       -4.26188       -0.55570
H          6.03532       -1.31258        3.51888
H          6.25635        0.39958        3.15000
H          4.61220       -0.27744        3.24655
