72
-98.09984085
Fe        -0.02696        2.82443       -0.01418
P          1.86283       -0.04636        0.00588
P         -1.83201       -0.10400       -0.09699
C          1.42053        1.61195        0.65338
C          0.46597        1.88961        1.71288
C          0.41526        3.32818        1.90952
C          1.35479        3.93874        0.98574
C          1.99704        2.87810        0.22738
C         -1.41871        1.55766       -0.74257
C         -2.03822        2.81428       -0.35477
C         -1.41269        3.88310       -1.11561
C         -0.40979        3.28930       -1.98093
C         -0.41246        1.85538       -1.74707
C          3.22747       -0.69509        1.08567
C          4.42478        0.12181        0.57232
C          2.90525        0.16430       -1.52147
C          4.32759        0.40011       -0.95626
C         -3.27720       -0.74473       -1.06825
C         -4.47279       -0.28236       -0.21946
C         -2.65215        0.02680        1.56446
C         -4.13280       -0.30715        1.29258
H         -0.09060        1.14574        2.28257
H         -0.20292        3.85469        2.64063
H          1.56873        5.00686        0.90107
H          2.76338        3.00681       -0.53960
H         -2.85080        2.92666        0.36619
H          0.22414        1.12299       -2.24457
Cl         1.61666       -3.12000        0.14036
Cl        -1.50758       -3.14056       -0.32141
Pd         0.03771       -1.52009       -0.05174
H          3.36470       -1.75481        0.84271
C          2.95793       -0.52751        2.57823
H          2.53613        1.05148       -2.04941
C          2.85191       -1.05534       -2.44197
H          5.37102       -0.38195        0.82414
H          4.44831        1.07476        1.12115
H          4.66712        1.42201       -1.18126
H          5.03050       -0.25482       -1.48974
H         -1.66728        4.94396       -1.06110
H          0.22884        3.82357       -2.68811
H          3.90668       -0.61462        3.12584
H          3.69222       -1.00315       -3.14848
H         -3.21195       -1.83832       -1.06265
C         -3.31511       -0.23394       -2.50410
H         -2.53808        1.06909        1.88484
C         -2.00575       -0.91390        2.57380
H         -5.35849       -0.89941       -0.43641
H         -4.74406        0.73943       -0.52029
H         -4.79024        0.37408        1.85298
H         -4.34604       -1.30898        1.68913
H         -4.28704       -0.48848       -2.94928
H         -0.92295       -0.74842        2.58049
C          1.95842       -1.53536        3.12024
H          1.73767       -1.37191        4.17746
H          1.01787       -1.48678        2.57444
H          2.33039       -2.55613        3.01369
C          1.55463       -1.19791       -3.21896
H          1.35917       -0.31553       -3.83114
H          1.57106       -2.06252       -3.88649
H          0.70594       -1.32759       -2.55047
C         -2.19076       -0.78726       -3.36119
H         -1.22080       -0.49893       -2.95954
H         -2.21517       -1.87820       -3.39085
H         -2.24012       -0.42573       -4.39079
C         -2.56089       -0.75497        3.98124
H         -2.07875       -1.43209        4.69003
H         -2.41559        0.26284        4.34831
H         -3.63277       -0.95770        4.01217
H          2.61254        0.49768        2.76324
H          3.03745       -1.95479       -1.84025
H         -3.28187        0.86332       -2.49157
H         -2.13279       -1.94750        2.22452
