59
-75.81297325
Cl         1.59644        0.66640        2.30775
P          1.60126       -0.07264       -0.86902
P         -1.63344       -0.08514       -0.79988
C          0.57943        0.30999       -2.35590
H          0.32404        1.37243       -2.34931
H          1.17922        0.11920       -3.25127
C         -0.65907       -0.53787       -2.30271
H         -0.39835       -1.59759       -2.24018
H         -1.29544       -0.40478       -3.18346
C          2.50982       -1.65877       -1.20049
H          2.31458       -1.86344       -2.26188
C          3.05309        1.06153       -0.66208
H          3.17265        1.20065        0.41937
C         -2.95578       -1.33173       -0.44252
H         -3.31815       -1.10571        0.56807
C         -2.76463        1.31614       -1.25568
H         -2.29055        1.84698       -2.09026
C          3.99192       -1.28504       -1.01895
H          4.32037       -1.56777       -0.01167
H          4.62104       -1.87244       -1.70471
C          4.22442        0.23559       -1.22107
H          4.33016        0.45255       -2.29304
H          5.17197        0.55451       -0.76043
C         -4.01846       -0.94119       -1.48261
H         -3.77764       -1.44889       -2.42806
H         -5.00642       -1.32762       -1.18705
C         -4.06302        0.59955       -1.70843
H         -4.90853        1.02185       -1.14787
H         -4.27895        0.82620       -2.76305
C          2.02385       -2.83285       -0.35257
H          2.52430       -3.75028       -0.69248
H          0.95905       -2.99499       -0.56461
C          2.86851        2.41377       -1.34005
H          3.82876        2.94825       -1.33992
H          2.63005        2.25140       -2.39913
C         -2.49347       -2.78314       -0.51233
H         -3.37504       -3.43733       -0.56114
H         -1.96398       -2.94725       -1.45878
C         -3.00315        2.27294       -0.08894
H         -3.86773        2.90945       -0.32467
H         -3.30678        1.68625        0.78825
C          2.23247       -2.66976        1.14717
H          1.75333       -3.47113        1.71454
H          1.82367       -1.72715        1.50907
H          3.28970       -2.68048        1.41538
C          1.80071        3.26759       -0.67705
H          0.83364        2.76635       -0.69256
H          1.67850        4.23363       -1.17211
H          2.04278        3.46078        0.36977
C         -1.62240       -3.18099        0.66871
H         -1.26459       -4.21007        0.58992
H         -2.16970       -3.09363        1.60922
H         -0.75042       -2.53312        0.75303
C         -1.80959        3.15051        0.25078
H         -2.03953        3.86164        1.04753
H         -0.96193        2.55711        0.59000
H         -1.48150        3.72518       -0.61738
Cl        -1.58654        0.09555        2.38667
Pd         0.01472        0.12500        0.81208
