58
-89.86684737
P          1.67486        0.22964        0.79023
C          2.88069        1.55264        0.65671
C          4.17690        1.27489        0.28785
C          5.09637        2.30282        0.18227
C          4.70891        3.60175        0.44684
C          3.40667        3.87513        0.81659
C          2.48928        2.84473        0.92228
H          1.46633        3.04284        1.20203
H          4.46268        0.25652        0.07957
C          2.29724       -1.28085        0.03843
C          2.53948       -2.41607        0.77885
C          2.97838       -3.56571        0.14727
C          3.17266       -3.57133       -1.22007
C          2.93305       -2.42970       -1.95849
C          2.49450       -1.28266       -1.32397
H          2.29057       -0.38269       -1.88263
H          2.38266       -2.40610        1.84456
C          1.34696        0.02871        2.58973
C          0.11912       -0.79543        2.93658
C         -1.19076       -0.09648        2.60630
P         -1.64553       -0.26375        0.83664
C         -3.21968        0.56699        0.56835
C         -3.37672        1.85696        1.02321
C         -4.56743        2.52574        0.80065
C         -5.59051        1.90048        0.11596
C         -5.42438        0.61160       -0.35036
C         -4.23341       -0.05424       -0.12496
H         -4.08334       -1.05096       -0.50607
H         -2.56382        2.34180        1.54025
C         -1.74515       -2.02323        0.47816
C         -0.74857       -2.63654       -0.24474
C         -0.80565       -3.99637       -0.48633
C         -1.86193       -4.73724        0.00458
C         -2.85388       -4.12233        0.74287
C         -2.79056       -2.76152        0.98524
H         -3.54975       -2.27195        1.57459
H          0.08521       -2.05697       -0.60066
Pd        -0.10670        0.69777       -0.62602
Cl         1.33462        1.81219       -1.93815
Cl        -1.86699        0.84232       -2.01584
H         -2.02585       -0.52552        3.16573
H         -1.14656        0.96367        2.86037
H          0.15804       -1.76306        2.41843
H          0.14178       -1.03980        4.01032
H          2.25520       -0.40184        3.01800
H          1.25671        1.03377        3.00652
H          6.11171        2.08984       -0.10924
H          3.10320        4.88921        1.01858
H          3.16501       -4.45769        0.72247
H          3.08303       -2.43204       -3.02557
H         -4.69268        3.53534        1.15609
H         -6.21779        0.12702       -0.89532
H         -0.02228       -4.47533       -1.05038
H         -3.67476       -4.70123        1.13315
H          5.42354        4.40412        0.36188
H          3.51222       -4.46841       -1.71163
H         -6.51696        2.42194       -0.06149
H         -1.90928       -5.79745       -0.18365
