75
-122.81680730
P          1.86452       -0.56954       -0.02621
C          1.73867       -1.55959       -1.52409
C          1.51871       -0.96702       -2.74627
C          1.51342       -1.73585       -3.89502
C          1.72301       -3.09792       -3.81121
C          1.93333       -3.69165       -2.58249
C          1.94337       -2.91780       -1.43584
H          2.12521       -3.36451       -0.47111
H          2.09329       -4.75519       -2.51605
H          1.71435       -3.69960       -4.70535
H          1.33785       -1.27289       -4.85210
H          1.33773        0.09355       -2.79474
C          3.19116       -1.28991        0.95472
C          4.46412       -1.30207        0.43111
C          5.49853       -1.87457        1.14919
C          5.24775       -2.44042        2.38331
C          3.96620       -2.44086        2.89697
C          2.93434       -1.86816        2.17644
H          1.92947       -1.86472        2.56663
H          3.76922       -2.88513        3.85879
H          6.05277       -2.88558        2.94496
H          6.49693       -1.88120        0.74373
H          4.64052       -0.87547       -0.54402
C          2.21505        1.14663       -0.44591
C          3.37713        1.79563       -0.09984
C          3.54329        3.14474       -0.37948
C          2.49677        3.83519       -0.98906
C          1.32073        3.20141       -1.32360
C          1.17390        1.83089       -1.05661
O         -0.01997        1.15331       -1.35851
C         -1.20934        1.83241       -1.04433
C         -1.35946        3.20194       -1.31513
C         -2.53369        3.83619       -0.97478
C         -3.57434        3.14836       -0.35224
C         -3.40245        1.80209       -0.06242
C         -2.24219        1.15313       -0.41458
P         -1.88734       -0.55553        0.02466
C         -3.23374       -1.27393        0.97738
C         -3.01772       -1.81102        2.22540
C         -4.06877       -2.37995        2.92073
C         -5.32842       -2.41594        2.35649
C         -5.53819       -1.88962        1.09744
C         -4.48449       -1.32103        0.40454
H         -4.62838       -0.92148       -0.58734
H         -6.51938       -1.92371        0.65320
H         -6.14839       -2.85825        2.89842
H         -3.90394       -2.79265        3.90246
H         -2.03008       -1.77704        2.65577
C         -1.70651       -1.56892       -1.44575
C         -1.83299       -1.01489       -2.69879
C         -1.77911       -1.82603       -3.81719
C         -1.60050       -3.18749       -3.67074
C         -1.47126       -3.73847       -2.41109
C         -1.52722       -2.92459       -1.29377
H         -1.44473       -3.34047       -0.30176
H         -1.32755       -4.80030       -2.29728
H         -1.55461       -3.82052       -4.54178
H         -1.87345       -1.39503       -4.80028
H         -1.97049        0.04956       -2.79604
Pd         0.00279       -0.05886        1.34671
Cl        -1.51491        0.78098        2.79528
Cl         1.60431        0.83528        2.67464
H         -4.17201        1.26694        0.46526
C         -4.81749        3.85635        0.05341
H         -5.02556        4.69792       -0.60855
H         -4.72831        4.24078        1.07020
H         -5.67868        3.18767        0.02049
H         -2.63931        4.88638       -1.18254
S         -0.02176        4.08035       -2.07858
H          2.59960        4.88663       -1.19177
C          4.78765        3.85240        0.02308
H          4.15224        1.25943        0.41816
H          4.98904        4.69987       -0.63339
H          4.70466        4.22823        1.04361
H          5.65015        3.18608       -0.02129
