171
-217.84559768
P         -1.54961        0.39240       -0.45017
P          1.62155       -0.35398       -0.28965
C         -0.79814        1.39010       -1.73997
C          1.01322       -1.28292       -1.70327
C          0.05433        0.81443       -2.67484
C          0.70334        1.64975       -3.60442
C          0.44070        3.00950       -3.59110
C         -0.43416        3.55596       -2.67608
C         -1.04413        2.74119       -1.74239
C          1.24582       -2.63637       -1.74034
C          0.73337       -3.40301       -2.76822
C         -0.02916       -2.80603       -3.74927
C         -0.27614       -1.44354       -3.73129
C          0.27113       -0.65755       -2.69867
Cl         1.38209        0.23777        2.98407
Cl        -1.71529       -0.50448        2.74423
C         -1.10577       -0.83801       -4.80925
C          1.65564        1.09820       -4.60731
H         -0.63628        4.61454       -2.68452
H         -1.71591        3.16026       -1.01056
H          1.83240       -3.09758       -0.96271
H          0.92448       -4.46320       -2.79972
H          0.93239        3.64291       -4.31013
H         -0.44396       -3.40122       -4.54531
C         -3.71120       -3.33398       -1.82134
C         -2.79608       -3.43081       -0.77987
C         -2.12179       -2.27827       -0.40237
C         -2.35559       -1.08973       -1.04713
C         -3.26204       -1.00820       -2.07513
C         -3.96447       -2.13700       -2.48138
H         -4.26107       -4.20691       -2.11852
H         -1.42621       -2.30187        0.41894
H         -3.42768       -0.05190       -2.54146
C         -4.51925        2.75263        2.04178
C         -3.16669        3.05901        2.14756
C         -2.27495        2.35351        1.35073
C         -2.72155        1.37033        0.50345
C         -4.05874        1.07527        0.41826
C         -4.98884        1.76552        1.18245
H         -5.22213        3.28701        2.65124
H         -1.21848        2.55301        1.41331
H         -4.38005        0.28426       -0.23659
C          4.29805       -2.88259        2.35895
C          2.95394       -3.21942        2.24875
C          2.16269       -2.45283        1.40408
C          2.69142       -1.37955        0.73143
C          4.01619       -1.04874        0.86836
C          4.85188       -1.80283        1.68176
H          4.93554       -3.46782        2.99441
H          1.11837       -2.68237        1.27935
H          4.39006       -0.18822        0.34317
C          3.82630        3.48721       -1.19997
C          2.78640        3.51165       -0.27842
C          2.09806        2.32789       -0.05107
C          2.45557        1.17504       -0.70506
C          3.49151        1.16414       -1.60598
C          4.20040        2.32990       -1.87261
H          4.37515        4.38924       -1.39399
H          1.28179        2.29934        0.64960
H          3.74679        0.23510       -2.08673
Pd        -0.06441       -0.04904        1.28897
C         -1.05329       -5.13002       -0.19561
C         -2.52962       -4.73623       -0.01809
C         -3.41031       -5.88994       -0.53383
C         -2.83175       -4.52088        1.47742
H         -0.39244       -4.34220        0.16226
H         -0.82217       -6.04123        0.35572
H         -0.82675       -5.30433       -1.24683
H         -3.21375       -6.09325       -1.58636
H         -3.21051       -6.80628        0.02153
H         -4.46870       -5.65740       -0.41746
H         -3.86893       -4.21865        1.62042
H         -2.66423       -5.43576        2.04540
H         -2.19780       -3.74462        1.90377
C         -6.41531       -2.37351       -2.92098
C         -5.04883       -2.07890       -3.56675
C         -4.75269       -3.12885       -4.65432
C         -5.11411       -0.69056       -4.23322
H         -6.43268       -3.36535       -2.47048
H         -6.63566       -1.64774       -2.13823
H         -7.21500       -2.32714       -3.65998
H         -3.77072       -2.96352       -5.09572
H         -4.76996       -4.13929       -4.24814
H         -5.49293       -3.08109       -5.45283
H         -5.37428        0.08141       -3.50937
H         -4.16059       -0.42783       -4.68975
H         -5.87161       -0.67324       -5.01668
C         -1.86475        5.19170        2.36686
C         -2.62195        4.09693        3.13903
C         -1.66115        3.39600        4.11907
C         -3.75045        4.76156        3.95008
H         -1.01782        4.77385        1.82639
H         -2.51883        5.67675        1.64256
H         -1.48278        5.95549        3.04402
H         -1.26747        4.09985        4.85193
H         -2.17435        2.59854        4.65586
H         -0.81519        2.95126        3.59643
H         -4.45044        5.28079        3.29570
H         -4.30185        4.02368        4.53249
H         -3.34494        5.49478        4.64717
C         -6.93486        1.57506       -0.38816
C         -6.47258        1.38796        1.06922
C         -7.35578        2.26246        1.97932
C         -6.64979       -0.08562        1.48183
H         -7.99104        1.32936       -0.49725
H         -6.79307        2.60734       -0.70749
H         -6.37303        0.93504       -1.06741
H         -7.08106        2.14082        3.02691
H         -7.26576        3.31655        1.71744
H         -8.40549        1.98625        1.88022
H         -7.69734       -0.38204        1.43208
H         -6.08410       -0.75055        0.82995
H         -6.30106       -0.24351        2.50216
C          2.18431       -5.58358        2.00312
C          2.34044       -4.41543        2.99073
C          0.95922       -4.02963        3.56061
C          3.23062       -4.86589        4.16564
H          3.15424       -5.89039        1.61211
H          1.72420       -6.44599        2.48511
H          1.56202       -5.29654        1.15677
H          1.03574       -3.14167        4.18778
H          0.24123       -3.82072        2.76945
H          0.54841       -4.83696        4.16649
H          4.18652       -5.25304        3.81435
H          3.42250       -4.03737        4.84727
H          2.74807       -5.66104        4.73387
C          7.19609       -2.67180        1.45895
C          6.33715       -1.45938        1.86321
C          6.59621       -1.10554        3.33872
C          6.75241       -0.25756        0.99087
H          8.25810       -2.44649        1.55503
H          6.98224       -3.53703        2.08520
H          7.00277       -2.95170        0.42352
H          6.36165       -1.94421        3.99325
H          7.64052       -0.83811        3.49890
H          5.97958       -0.26058        3.64467
H          7.81138       -0.03371        1.11877
H          6.58394       -0.46458       -0.06583
H          6.19237        0.63732        1.26185
C          2.16264        4.48304        1.96116
C          2.36958        4.78976        0.46372
C          1.05691        5.30891       -0.14358
C          3.44250        5.88973        0.34492
H          1.34815        3.77807        2.11927
H          3.06575        4.05381        2.39432
H          1.92111        5.39029        2.51464
H          0.27522        4.55358       -0.07808
H          0.71053        6.20333        0.37389
H          1.19303        5.55774       -1.19570
H          3.16418        6.76583        0.93061
H          4.40576        5.53570        0.71195
H          3.56379        6.21473       -0.68801
C          5.18397        3.43588       -3.90574
C          5.40297        2.35833       -2.82683
C          5.60582        1.00007       -3.52644
C          6.67349        2.68624       -2.02114
H          5.10740        4.42958       -3.46640
H          6.01188        3.45064       -4.61440
H          4.26768        3.24648       -4.46314
H          5.81326        0.21230       -2.80247
H          4.72395        0.71768       -4.10041
H          6.44915        1.04231       -4.21559
H          7.55196        2.70153       -2.66600
H          6.59484        3.66035       -1.53958
H          6.83883        1.94176       -1.24283
H         -0.52404       -0.70884       -5.72286
H          2.01516        0.11059       -4.31516
H         -1.49406        0.13763       -4.51385
H         -1.95905       -1.47419       -5.04538
H          2.52568        1.74634       -4.71372
H          1.18348        1.01112       -5.58673
