72
-108.40355446
Cl         1.68122       -0.91145        2.75397
Cl        -0.94783        0.81155        2.79920
P         -1.07782        1.14539       -0.26368
P          2.23048       -0.09592       -0.39655
C          3.22972        1.49911       -0.15306
C          3.58145        1.65731        1.32821
C          4.49849        1.45660       -0.99700
C          3.30876       -1.64272       -0.13102
C          4.14525       -1.93438       -1.38375
C          1.44390       -0.40282       -2.08205
C          1.51924        0.75428       -3.05651
C         -1.12490       -0.17751       -1.50851
C          0.02418       -0.93166       -2.00372
C         -0.50743       -2.00452       -2.84763
C         -1.94969       -1.87074       -2.92328
C         -2.32776       -0.75258       -2.08127
C          2.37208        2.68927       -0.55551
H          2.68976        1.62808        1.95435
H          4.26202        0.88598        1.67781
H          4.27646        1.26175       -2.04511
H          5.18627        0.68891       -0.64637
C          4.24362       -1.50003        1.06585
H          4.64577       -1.04216       -1.75491
H          3.54366       -2.34676       -2.19287
H          2.04787       -1.21718       -2.49252
H          0.86269        1.56144       -2.74009
H          1.17876        0.45189       -4.04899
H          2.53088        1.14408       -3.16289
H          0.09710       -2.69843       -3.43511
H         -2.62807       -2.49899       -3.50422
Pd         0.52435        0.21421        1.20131
H         -3.34211       -0.40059       -1.88249
C          2.34032       -2.79105        0.11077
H          4.91459       -2.67631       -1.16339
H          3.70582       -1.18519        1.95766
H          4.71796       -2.45549        1.29463
H          5.04451       -0.79038        0.86612
H          1.59576       -2.84918       -0.68439
H          2.86822       -3.74601        0.14862
H          1.82532       -2.66396        1.06156
H          4.07220        2.61603        1.50368
H          5.02667        2.40995       -0.94302
H          2.12438        2.68008       -1.61372
H          1.44882        2.69901        0.02084
H          2.89260        3.62769       -0.35654
C         -2.75049        1.24261        0.43266
C         -3.18991        2.21280        1.29905
C         -4.52066        1.92344        1.59993
C         -4.84209        0.78700        0.90027
O         -3.76512        0.35918        0.17934
H         -2.60585        3.02828        1.69192
H         -5.16807        2.48058        2.25724
H         -5.80350        0.28850        0.90962
C         -0.71065        2.76003       -0.97609
C         -0.65688        3.91943       -0.24195
C         -0.35400        4.95216       -1.13026
C         -0.23590        4.37851       -2.37237
O         -0.44827        3.03173       -2.29106
H         -0.79948        4.00512        0.82309
H         -0.23536        5.99568       -0.88830
H         -0.00555        4.90255       -3.29167
Fe        -1.29824       -2.11311       -0.96624
C         -3.00511       -2.83356       -0.06533
C         -2.21192       -2.03637        0.84998
C         -0.90225       -2.64448        0.95029
C         -0.87782       -3.82230        0.10279
C         -2.17482       -3.92616       -0.54054
H         -4.04388       -2.64226       -0.34362
H         -2.54181       -1.14008        1.37904
H         -0.11448       -2.31301        1.62947
H         -0.05021       -4.52710       -0.00311
H         -2.48748       -4.71559       -1.22769
