111
-148.55554176
P         -1.87455       -2.70436       -0.38445
P         -0.30967        0.04584       -0.57412
C         -1.43997       -2.01987       -2.00600
C         -0.82471       -0.78888       -2.08714
C         -1.06230       -4.34073       -0.10018
C         -0.15073       -4.26100        1.10619
C         -1.71551       -2.72884       -3.15756
H         -2.17470       -3.70125       -3.08606
C         -1.38916       -2.19263       -4.39128
H         -1.60705       -2.74416       -5.29125
C         -0.78186       -0.95396       -4.47023
H         -0.52382       -0.53853       -5.43044
C         -0.49058       -0.25353       -3.31331
H          0.00871        0.70143       -3.35601
Pd        -1.37374       -1.06275        1.15217
Cl        -2.86505       -1.91032        2.59465
Cl        -0.71810        0.58703        2.53108
C         -2.24825       -5.31277        0.07582
C         -3.65182       -3.20985       -0.28959
H          0.33707       -5.21853        1.30408
H          0.62418       -3.50239        0.97264
H         -0.71867       -3.98871        1.99844
H         -2.37459       -5.52064        1.14710
H         -2.01764       -6.28512       -0.38465
H         -3.97619       -2.98357        0.73454
C         -3.57570       -4.73360       -0.49128
C         -4.51326       -2.47093       -1.29135
H         -0.49744       -4.56883       -1.01361
H         -3.64843       -4.95480       -1.56493
H         -4.44736       -5.22367       -0.03090
H         -5.56142       -2.76812       -1.21139
H         -4.45462       -1.39026       -1.14170
H         -4.19154       -2.67680       -2.31296
C         -0.89202        4.56068       -0.50596
C          0.20869        4.00964       -1.21131
C          0.36996        2.63332       -1.20687
C         -0.55404        1.81741       -0.60728
C         -1.67860        2.33944       -0.02414
C         -1.89476        3.70657        0.01877
O         -0.96996        5.96328       -0.29556
C          1.23291        4.88450       -1.95172
H          1.23346        2.17773       -1.66008
H         -2.37922        1.65819        0.42756
C         -3.17790        4.23509        0.67839
C          3.91319       -1.28331        0.48398
C          3.44150       -0.02862        0.94880
C          2.14959        0.34846        0.62204
C          1.37395       -0.42901       -0.19580
C          1.85720       -1.59799       -0.72474
C          3.14111       -2.03244       -0.44097
O          5.13913       -1.81250        0.96826
C          4.28813        0.91201        1.82028
H          1.71983        1.25049        1.02176
H          1.21083       -2.17249       -1.36478
C          3.68513       -3.29326       -1.13277
C          1.84897        4.11491       -3.14208
C          0.56584        6.14587       -2.53014
C          2.36234        5.27828       -0.98831
C         -4.33832        3.22945        0.49896
C         -2.92804        4.42846        2.18204
C         -3.63066        5.55930        0.03736
C         -0.33240        6.40735        0.89568
H          1.06957        3.71327       -3.78917
H          2.47744        4.77150       -3.74337
H          2.47693        3.29054       -2.80734
H          1.27637        6.73414       -3.11027
H         -0.26400        5.87618       -3.18252
H          0.17606        6.78535       -1.74200
H          1.98126        5.84387       -0.14183
H          2.85986        4.39192       -0.59734
H          3.11005        5.89014       -1.49232
H         -5.27752        3.65636        0.84997
H         -4.46280        2.96424       -0.55059
H         -4.17214        2.31552        1.06727
H         -2.63728        3.48673        2.64719
H         -2.12930        5.14418        2.36057
H         -3.82459        4.79101        2.68408
H         -2.89776        6.34702        0.19155
H         -3.76891        5.43786       -1.03646
H         -4.57373        5.89914        0.46470
H          0.13599        5.56838        1.41201
H          0.42401        7.15213        0.64866
H         -1.06602        6.87421        1.55253
C          5.00608       -2.58393        2.15547
C          3.93517        2.38702        1.52217
C          3.99888        0.62399        3.30116
C          5.79101        0.74916        1.52854
C          5.19112       -3.14767       -1.41756
C          3.43514       -4.52453       -0.24986
C          2.98392       -3.51794       -2.49182
H          4.01957        2.59247        0.45562
H          2.92431        2.63584        1.84127
H          4.61129        3.06112        2.04754
H          4.58097        1.27975        3.94805
H          2.94347        0.77925        3.52403
H          4.24165       -0.40486        3.55695
H          6.14235       -0.24559        1.78931
H          5.99533        0.90776        0.47019
H          6.38083        1.46621        2.09904
H          5.76091       -3.06334       -0.49505
H          5.57227       -4.01032       -1.96345
H          5.38483       -2.25630       -2.01331
H          3.90408       -4.41477        0.72448
H          2.36873       -4.67620       -0.09245
H          3.83511       -5.42503       -0.71531
H          3.04021       -2.62283       -3.11072
H          1.93492       -3.78196       -2.36434
H          3.45474       -4.33384       -3.03970
H          5.46445       -3.56147        2.00573
H          5.52202       -2.08895        2.97773
H          3.95324       -2.70905        2.41178
