111
-148.55931431
P         -2.45023       -2.26542       -0.51355
P          0.00208       -0.26080       -0.51856
C         -1.56871       -1.93119       -2.05902
C         -0.50218       -1.05948       -2.05416
C         -2.89904       -4.05174       -0.34620
C         -2.01861       -4.73885        0.67499
C         -1.96605       -2.52890       -3.23775
H         -2.81144       -3.19751       -3.23753
C         -1.28382       -2.25658       -4.41105
H         -1.59214       -2.72313       -5.33240
C         -0.21072       -1.38607       -4.40293
H          0.32040       -1.17404       -5.31623
C          0.17975       -0.78306       -3.22055
H          1.01371       -0.09918       -3.19752
Pd        -1.18454       -1.32842        1.16368
Cl        -2.67660       -2.05109        2.67294
Cl         0.16095       -0.34844        2.66953
C         -4.39176       -3.99462        0.02973
C         -4.13105       -1.49492       -0.46800
H         -2.28498       -5.79241        0.78789
H         -0.96449       -4.68282        0.39238
H         -2.12044       -4.26647        1.65355
H         -4.47931       -4.00949        1.12494
H         -4.91083       -4.89982       -0.32049
H         -4.20896       -0.99370        0.50589
C         -5.07430       -2.71145       -0.52442
C         -4.30959       -0.50735       -1.60163
H         -2.76937       -4.50358       -1.33786
H         -5.37405       -2.87858       -1.56810
H         -6.00717       -2.49733        0.01895
H         -4.20730       -1.00505       -2.56763
H         -5.29672       -0.03999       -1.57358
H         -3.55586        0.28267       -1.56300
C         -1.19807        4.13453       -0.43169
C         -0.09831        3.72053       -1.22623
C          0.25296        2.38020       -1.21486
C         -0.48846        1.46188       -0.51797
C         -1.62167        1.84093        0.15399
C         -2.02151        3.16570        0.19558
O         -1.45398        5.51861       -0.24017
C          0.71909        4.70559       -2.07746
H          1.12236        2.03389       -1.74662
H         -2.18929        1.08652        0.66864
C         -3.30318        3.53427        0.95992
C          4.40178       -0.92369        0.44635
C          3.77318        0.28809        0.83097
C          2.43372        0.45801        0.52282
C          1.74800       -0.48381       -0.19763
C          2.37713       -1.61071       -0.65887
C          3.71697       -1.84042       -0.39209
O          5.69660       -1.24124        0.93581
C          4.49938        1.39147        1.61550
H          1.89483        1.32297        0.86904
H          1.79811       -2.32037       -1.22450
C          4.39324       -3.08788       -0.98187
C         -0.17228        5.83914       -2.61698
C          1.86218        5.28825       -1.23333
C          1.33052        3.99080       -3.30391
C         -4.32451        2.37511        0.91398
C         -2.95078        3.81346        2.42901
C         -3.99226        4.76004        0.33354
C         -0.77885        6.08565        0.87575
H          0.39096        6.50224       -3.27313
H         -1.00950        5.43237       -3.18318
H         -0.57813        6.44314       -1.80920
H          1.48200        5.81921       -0.36438
H          2.51821        4.49571       -0.87645
H          2.46261        5.98544       -1.81719
H          2.09918        3.27664       -3.01207
H          0.56270        3.45969       -3.86596
H          1.80030        4.70896       -3.97561
H         -5.27345        2.67866        1.35545
H         -4.51794        2.07109       -0.11384
H         -3.97748        1.50725        1.47257
H         -2.49367        2.93681        2.88757
H         -2.24592        4.63662        2.51642
H         -3.84110        4.06931        3.00276
H         -3.36707        5.64651        0.40262
H         -4.20522        4.58314       -0.72019
H         -4.93294        4.98074        0.83741
H         -0.16180        6.92020        0.54310
H         -1.50782        6.46718        1.59035
H         -0.15080        5.33757        1.36127
C          5.68764       -1.94795        2.17002
C          6.00143        1.42363        1.27962
C          3.93049        2.78064        1.24817
C          4.29596        1.15629        3.11990
C          5.88735       -2.83386       -1.25265
C          4.22430       -4.26568       -0.01030
C          3.74912       -3.46733       -2.33503
H          6.49876        2.24966        1.78739
H          6.49709        0.50546        1.58387
H          6.15208        1.54451        0.20739
H          4.51773        3.57424        1.70962
H          3.95433        2.93054        0.16940
H          2.90399        2.90295        1.59027
H          4.70051        0.19429        3.42595
H          4.78723        1.93159        3.70714
H          3.23529        1.16294        3.37008
H          6.42991       -2.63794       -0.33114
H          6.35119       -3.69624       -1.73080
H          6.01771       -1.97232       -1.90665
H          3.16875       -4.46966        0.16810
H          4.68039       -5.17071       -0.41073
H          4.68707       -4.05345        0.95050
H          2.72623       -3.81968       -2.21095
H          4.30690       -4.26965       -2.81748
H          3.73805       -2.61340       -3.01193
H          6.20148       -1.36272        2.93237
H          4.66268       -2.14011        2.48995
H          6.21593       -2.89406        2.05285
