111
-148.55537941
P         -1.65564       -2.82483       -0.18263
P         -0.54586        0.15078       -0.51278
C         -1.57368       -2.05544       -1.82500
C         -1.15162       -0.74822       -1.95727
C         -0.47577       -4.24053       -0.04744
C          0.64251       -3.91400        0.91928
C         -1.90363       -2.78762       -2.94715
H         -2.19861       -3.81888       -2.84082
C         -1.83161       -2.20106       -4.19897
H         -2.09256       -2.77180       -5.07521
C         -1.41965       -0.88839       -4.32733
H         -1.35798       -0.43385       -5.30240
C         -1.06944       -0.16257       -3.20297
H         -0.71554        0.85292       -3.28754
Pd        -1.45910       -1.03987        1.24539
Cl        -1.80609       -2.36539        3.01902
Cl        -1.19985        0.83714        2.46477
C         -1.37511       -5.41107        0.39864
C         -3.25042       -3.68732        0.18429
H          0.24217       -3.68613        1.90912
H          1.33655       -4.75106        1.02551
H          1.21131       -3.04206        0.59082
H         -1.28186       -5.52997        1.48687
H         -1.01383       -6.35724       -0.03186
H         -3.47210       -3.46026        1.23591
C         -2.86893       -5.17127        0.03560
C         -4.38265       -3.22292       -0.70675
H         -0.08667       -4.41188       -1.05973
H         -3.05139       -5.48294       -1.00207
H         -3.52957       -5.79948        0.65261
H         -4.17013       -3.43432       -1.75517
H         -5.31903       -3.72609       -0.45507
H         -4.54148       -2.14591       -0.61575
C         -0.76378        4.68804       -0.76421
C          0.37792        4.00361       -1.25404
C          0.40660        2.62260       -1.15267
C         -0.66758        1.92708       -0.66223
C         -1.81598        2.57471       -0.29109
C         -1.91002        3.95519       -0.36205
O         -0.74458        6.10273       -0.63912
C          1.59352        4.73183       -1.84850
H          1.28313        2.06693       -1.43938
H         -2.63429        1.98337        0.08231
C         -3.22659        4.63545        0.04424
C          3.67649       -1.28101        0.40027
C          3.00929       -0.41796        1.30697
C          1.72744       -0.00257        0.99171
C          1.14420       -0.34937       -0.19713
C          1.81927       -1.10293       -1.12025
C          3.10383       -1.55418       -0.86880
O          4.89597       -1.90329        0.77860
C          3.62350        0.02738        2.64225
H          1.13894        0.56396        1.69256
H          1.31764       -1.35462       -2.03790
C          3.83048       -2.36843       -1.95004
C          1.17229        6.03213       -2.55683
C          2.59881        5.03858       -0.72786
C          2.29200        3.84940       -2.90845
C         -3.44835        5.93732       -0.74698
C         -4.43193        3.71611       -0.25725
C         -3.19986        4.92800        1.55225
C         -0.25460        6.56612        0.61311
H          0.42754        5.82643       -3.32495
H          0.74140        6.74412       -1.85758
H          2.02630        6.51365       -3.03253
H          2.92667        4.11947       -0.24252
H          3.47955        5.54552       -1.12121
H          2.15726        5.67526        0.03500
H          2.76601        2.97762       -2.45984
H          1.57886        3.50551       -3.65722
H          3.07365        4.40828       -3.42256
H         -4.41218        6.38405       -0.50422
H         -2.68008        6.67344       -0.52441
H         -3.42452        5.74352       -1.81882
H         -5.37124        4.24282       -0.09019
H         -4.41516        3.38261       -1.29452
H         -4.44019        2.83782        0.38639
H         -4.12913        5.39576        1.87628
H         -3.06847        4.00722        2.12019
H         -2.38038        5.59430        1.81028
H          0.62327        7.19210        0.45425
H         -1.01795        7.16968        1.10387
H          0.01020        5.72345        1.25308
C          4.73095       -3.15423        1.43545
C          3.24250       -0.98314        3.73514
C          5.15415        0.15077        2.53793
C          3.08666        1.41914        3.04928
C          5.35200       -2.14410       -1.88566
C          3.50435       -3.85872       -1.76786
C          3.37080       -1.93367       -3.36062
H          3.61967       -1.97629        3.50346
H          3.64883       -0.68543        4.70133
H          2.15928       -1.05501        3.83175
H          5.58132        0.52487        3.46801
H          5.61707       -0.80970        2.32668
H          5.42967        0.83698        1.73780
H          3.61459        1.79660        3.92466
H          3.22081        2.13790        2.24125
H          2.02880        1.38486        3.30523
H          5.86041       -2.67143       -2.69246
H          5.58724       -1.08383       -1.97209
H          5.76695       -2.50184       -0.94679
H          4.00380       -4.46310       -2.52458
H          3.81993       -4.21553       -0.79045
H          2.43174       -4.03118       -1.85287
H          3.46651       -0.85519       -3.48418
H          2.33487       -2.21058       -3.55103
H          3.97574       -2.41370       -4.12953
H          5.18545       -3.11095        2.42508
H          3.67247       -3.39729        1.53271
H          5.23220       -3.93615        0.86529
