58
-89.86829750
P          1.57621        0.11751        0.74231
C          1.55811        1.90871        0.59194
C          1.56788        2.44920       -0.67345
C          1.54054        3.82118       -0.83963
C          1.51060        4.64434        0.26848
C          1.51455        4.09914        1.53746
C          1.54083        2.72571        1.69964
H          1.54782        2.29143        2.68581
H          1.60123        1.78663       -1.52373
C          3.20446       -0.53489        0.35892
C          4.29625        0.29815        0.45182
C          5.55937       -0.18771        0.16489
C          5.71874       -1.50628       -0.21302
C          4.62037       -2.33829       -0.30461
C          3.35875       -1.84982       -0.01591
H          2.49219       -2.48573       -0.09916
H          4.15442        1.32628        0.74469
C          1.12017       -0.45211        2.43513
C          0.45540       -1.82368        2.40175
C         -1.05444       -1.77815        2.21819
P         -1.62140       -0.80810        0.75619
C         -1.79926        0.95475        1.08993
C         -1.79320        1.46574        2.36765
C         -1.89382        2.83094        2.56302
C         -2.00557        3.67767        1.47833
C         -2.02438        3.16194        0.19842
C         -1.92384        1.79626        0.00737
H         -1.93753        1.37674       -0.98661
H         -1.72029        0.80224        3.21274
C         -3.16210       -1.49735        0.14800
C         -3.18866       -2.79935       -0.29610
C         -4.37025       -3.33826       -0.77367
C         -5.51617       -2.56801       -0.80191
C         -5.48410       -1.26148       -0.35574
C         -4.30119       -0.72538        0.12023
H         -4.25984        0.29415        0.46775
H         -2.28245       -3.38438       -0.28008
Pd         0.03603       -0.58478       -0.84973
Cl         1.72285       -0.45408       -2.33324
Cl        -1.46403       -1.16074       -2.41356
H         -1.46282       -2.78542        2.10520
H         -1.54182       -1.34909        3.09485
H          0.90637       -2.41567        1.59355
H          0.68893       -2.37709        3.32488
H          2.05178       -0.46347        3.00683
H          0.46979        0.28609        2.90372
H          1.54220        4.24462       -1.83048
H          1.49341        4.74260        2.40163
H          6.41571        0.46278        0.23413
H          4.74401       -3.36570       -0.60531
H         -1.88285        3.23374        3.56253
H         -2.11042        3.82040       -0.65020
H         -4.39371       -4.35589       -1.12738
H         -6.37732       -0.65914       -0.38070
H          1.48644        5.71453        0.14291
H          6.70168       -1.88594       -0.43980
H         -2.07751        4.74219        1.63090
H         -6.43641       -2.98635       -1.17590
