111
-148.55769028
P         -2.39321       -2.46955       -0.07489
P         -0.06735       -0.31683       -0.45628
C         -1.64744       -2.21740       -1.70422
C         -0.68271       -1.24851       -1.87415
C         -2.40922       -4.25068        0.41664
C         -1.41870       -4.49896        1.53352
C         -2.07534       -2.96331       -2.78350
H         -2.82711       -3.72267       -2.64004
C         -1.54239       -2.72611       -4.03889
H         -1.87646       -3.30693       -4.88307
C         -0.59045       -1.73970       -4.21185
H         -0.18054       -1.54945       -5.19010
C         -0.16099       -0.99739       -3.12626
H          0.57921       -0.22139       -3.24579
Pd        -1.36589       -0.97561        1.35252
Cl        -2.96386       -1.51094        2.83611
Cl        -0.33021        0.57611        2.60227
C         -3.88023       -4.49428        0.80395
C         -4.21237       -2.11498       -0.07968
H         -1.42689       -5.54470        1.85016
H         -0.40125       -4.24430        1.22612
H         -1.65996       -3.88704        2.40514
H         -3.98438       -4.36172        1.88967
H         -4.16091       -5.53998        0.60631
H         -4.40342       -1.51218        0.81790
C         -4.83911       -3.51321        0.07205
C         -4.64018       -1.36497       -1.32384
H         -2.14391       -4.82518       -0.48045
H         -5.07369       -3.90668       -0.92651
H         -5.80482       -3.44434        0.59549
H         -5.70360       -1.11642       -1.29526
H         -4.07661       -0.43711       -1.44081
H         -4.46717       -1.96380       -2.21912
C         -0.97864        4.12914       -0.77988
C          0.32396        3.65796       -1.08642
C          0.57508        2.30106       -0.96840
C         -0.42575        1.42432       -0.64177
C         -1.71144        1.85995       -0.45573
C         -2.02871        3.20524       -0.54383
O         -1.22361        5.52463       -0.67812
C          1.46609        4.59469       -1.51132
H          1.56597        1.90867       -1.11751
H         -2.46649        1.13134       -0.21630
C         -3.48568        3.64331       -0.32792
C          4.39293       -0.99447        0.26133
C          3.63971       -0.17857        1.14228
C          2.28333       -0.04003        0.90584
C          1.68542       -0.60521       -0.18932
C          2.43012       -1.31669       -1.09450
C          3.79167       -1.49978       -0.91935
O          5.73658       -1.33075        0.57643
C          4.25993        0.53263        2.35513
H          1.65917        0.49902        1.59538
H          1.92938       -1.73869       -1.94656
C          4.59073       -2.25243       -1.99557
C          2.21482        5.08621       -0.26335
C          2.46953        3.85266       -2.42377
C          0.92934        5.79233       -2.31605
C         -4.46433        2.53053       -0.76723
C         -3.71189        3.92581        1.16535
C         -3.82022        4.89111       -1.16483
C         -1.00744        6.05953        0.62178
H          2.62570        4.24531        0.29412
H          3.03886        5.74488       -0.53644
H          1.55454        5.63382        0.40436
H          3.20678        4.54443       -2.83064
H          3.01851        3.08533       -1.87973
H          1.95629        3.38024       -3.26098
H          0.36289        5.44989       -3.18143
H          0.27222        6.41374       -1.71285
H          1.74413        6.42271       -2.67137
H         -5.49337        2.88838       -0.74269
H         -4.24841        2.20287       -1.78381
H         -4.41266        1.66672       -0.10607
H         -4.74286        4.22316        1.35513
H         -3.50122        3.03749        1.76060
H         -3.06169        4.72154        1.51991
H         -3.62320        4.70861       -2.22069
H         -4.86952        5.16496       -1.05778
H         -3.22445        5.74697       -0.85790
H         -0.24891        6.84068        0.57454
H         -1.93028        6.50582        0.99183
H         -0.68186        5.27523        1.30640
C          5.87229       -2.51282        1.35537
C          5.71986        0.93346        2.07669
C          3.48995        1.83470        2.67488
C          4.18569       -0.39195        3.57951
C          6.02876       -1.71173       -2.09620
C          4.61038       -3.75145       -1.66070
C          3.94323       -2.06817       -3.38735
H          5.78277        1.55695        1.18541
H          6.13881        1.49318        2.91256
H          6.34812        0.06072        1.91766
H          4.00181        2.40750        3.44776
H          3.41060        2.46379        1.78915
H          2.48524        1.63075        3.04190
H          4.60851        0.09125        4.45991
H          3.15121       -0.65291        3.80179
H          4.73085       -1.31717        3.40931
H          6.58145       -1.88014       -1.17530
H          6.57567       -2.20007       -2.90235
H          6.02274       -0.63979       -2.29094
H          5.08087       -3.93453       -0.69781
H          3.59681       -4.14923       -1.61542
H          5.16008       -4.31292       -2.41573
H          2.97963       -2.57121       -3.45414
H          4.57721       -2.48905       -4.16745
H          3.79608       -1.01159       -3.60996
H          6.49449       -3.23177        0.82260
H          6.36119       -2.27503        2.29992
H          4.89412       -2.95326        1.55256
