111
-148.55366846
P         -1.83025       -2.72227       -0.28814
P         -0.42673        0.11486       -0.51772
C         -1.52387       -1.98696       -1.91967
C         -0.98793       -0.71974       -2.01442
C         -0.83831       -4.26529       -0.05607
C          0.14320       -4.09310        1.08441
C         -1.80933       -2.69939       -3.06689
H         -2.19664       -3.70197       -2.98749
C         -1.57935       -2.13015       -4.30749
H         -1.80611       -2.68488       -5.20331
C         -1.05557       -0.85486       -4.39900
H         -0.87179       -0.41370       -5.36480
C         -0.74907       -0.15137       -3.24805
H         -0.30838        0.83143       -3.30206
Pd        -1.42199       -1.02277        1.22682
Cl        -2.74344       -2.13399        2.65929
Cl        -0.91630        0.67210        2.60749
C         -1.90734       -5.34908        0.19391
C         -3.54166       -3.41278       -0.13318
H         -0.38364       -3.86061        2.01223
H          0.72510       -5.00238        1.25291
H          0.84039       -3.27410        0.89334
H         -1.96540       -5.54137        1.27397
H         -1.59704       -6.30379       -0.25674
H         -3.85569       -3.21315        0.89937
C         -3.31014       -4.92221       -0.32517
C         -4.51461       -2.78220       -1.10680
H         -0.31824       -4.44068       -1.00691
H         -3.39931       -5.16346       -1.39323
H         -4.10569       -5.49710        0.17326
H         -4.21633       -2.96918       -2.13879
H         -5.52211       -3.18482       -0.97985
H         -4.56278       -1.69927       -0.97138
C         -0.68003        4.65827       -0.69453
C         -1.63803        3.92767        0.05396
C         -1.55956        2.54478        0.04776
C         -0.53332        1.89831       -0.58937
C          0.45851        2.60387       -1.21991
C          0.43223        3.98825       -1.26474
O         -0.84750        6.05425       -0.89655
C         -2.74769        4.60867        0.87108
H         -2.29485        1.94888        0.56047
H          1.26372        2.05217       -1.67408
C          1.58939        4.74092       -1.94028
C          3.75210       -1.37062        0.50986
C          3.22372       -0.23669        1.17873
C          1.94790        0.18538        0.84524
C          1.24456       -0.42105       -0.16077
C          1.78766       -1.45649       -0.87572
C          3.05782       -1.92966       -0.59384
O          4.95425       -1.97174        0.96891
C          3.98658        0.51022        2.28331
H          1.46698        0.97778        1.39215
H          1.19712       -1.90294       -1.65586
C          3.65494       -3.04417       -1.46816
C         -2.28477        5.97758        1.40230
C         -3.99826        4.77521       -0.00484
C         -3.11723        3.75153        2.10397
C          2.90266        3.93212       -1.83955
C          1.25874        4.95447       -3.42503
C          1.84338        6.09498       -1.25297
C         -1.62690        6.38622       -2.03855
H         -2.08040        6.67047        0.58996
H         -3.04627        6.42978        2.03718
H         -1.37264        5.87233        1.98878
H         -4.80592        5.24755        0.55376
H         -3.78948        5.38907       -0.87775
H         -4.35299        3.80716       -0.35780
H         -3.61297        2.82514        1.81830
H         -2.22792        3.49895        2.68087
H         -3.80050        4.29022        2.75998
H          3.74643        4.51758       -2.20410
H          3.10918        3.65624       -0.80606
H          2.86341        3.02256       -2.43709
H          2.06829        5.47674       -3.93427
H          1.10454        3.99930       -3.92654
H          0.35179        5.54179       -3.54607
H          2.03421        5.95539       -0.18942
H          2.70463        6.60054       -1.68900
H          0.98745        6.75773       -1.35420
H         -1.93627        5.48211       -2.56442
H         -2.50859        6.94748       -1.72987
H         -1.04136        7.01494       -2.70917
C          4.75760       -2.97978        1.95267
C          3.59088        2.00464        2.30176
C          3.63555       -0.10687        3.64559
C          5.50670        0.45371        2.04747
C          3.08780       -2.97349       -2.90450
C          5.18324       -2.89597       -1.57909
C          3.29983       -4.41491       -0.87299
H          3.71224        2.44894        1.31451
H          2.55826        2.14620        2.61684
H          4.21656        2.56192        2.99851
H          4.15347        0.40923        4.45350
H          2.56417       -0.03942        3.83349
H          3.91210       -1.15777        3.68543
H          5.75709        0.85088        1.06431
H          6.04136        1.03820        2.79579
H          5.87947       -0.56602        2.09936
H          3.21266       -1.97480       -3.32217
H          3.60269       -3.67682       -3.55856
H          2.02907       -3.22759       -2.93301
H          5.44644       -1.91058       -1.96208
H          5.66413       -3.01720       -0.61150
H          5.60206       -3.64445       -2.25128
H          3.66666       -4.51115        0.14587
H          3.73334       -5.22095       -1.46443
H          2.22045       -4.55817       -0.85323
H          5.26197       -2.69475        2.87573
H          3.69351       -3.11873        2.14831
H          5.18973       -3.91799        1.60492
