87
-129.18584768
P         -1.69288       -0.36342       -0.11246
P          1.56024        0.33643       -0.20259
C         -1.44691        0.97115       -1.31057
C          1.30763       -0.64992       -1.68228
C         -0.50411        0.93059       -2.33633
C         -0.30328        2.08328       -3.12044
C         -1.06764        3.21165       -2.87979
C         -2.00712        3.23005       -1.87290
C         -2.18524        2.10933       -1.08610
C          2.10106       -1.74836       -1.90533
C          1.91854       -2.51579       -3.03862
C          0.93619       -2.17444       -3.94427
C          0.12301       -1.07244       -3.73671
C          0.31527       -0.28540       -2.58343
Cl         1.33169        1.04408        2.98317
Cl        -1.38533       -0.70498        3.07667
H         -2.58974        4.11813       -1.69035
H         -2.90317        2.12566       -0.28271
H          2.86997       -2.00408       -1.19553
H          2.53895       -3.37975       -3.21187
H         -0.91119        4.08766       -3.48625
H          0.78696       -2.77334       -4.82664
C         -0.85420       -4.59016       -1.55470
C         -0.34285       -4.16660       -0.33569
C         -0.63309       -2.87645        0.08999
C         -1.39591       -2.03706       -0.68926
C         -1.92355       -2.47439       -1.88093
C         -1.65031       -3.75752       -2.31691
H         -0.62533       -5.58335       -1.90169
C          0.53295       -5.05278        0.47781
H         -0.28603       -2.53758        1.05105
H         -2.52709       -1.80417       -2.47201
H         -2.04697       -4.10187       -3.25788
C         -5.83613       -0.01801        1.74487
C         -5.59153       -0.96573        0.77085
C         -4.32999       -1.07493        0.21640
C         -3.32437       -0.23595        0.63698
C         -3.56718        0.71029        1.60586
C         -4.82592        0.82718        2.18259
H         -6.81840        0.07054        2.17684
H         -6.38248       -1.62017        0.44287
H         -4.12423       -1.81233       -0.54222
H         -2.76839        1.35463        1.93446
C         -5.08289        1.85842        3.22440
C          4.94302       -1.45552        2.27053
C          5.06953       -0.17744        1.76295
C          4.04894        0.36924        1.00827
C          2.91396       -0.36661        0.76179
C          2.78455       -1.63836        1.27033
C          3.79564       -2.20141        2.03836
H          5.73754       -1.88353        2.85771
H          5.96115        0.39559        1.95808
H          4.12936        1.36986        0.61656
H          1.89078       -2.20355        1.06918
C          3.65188       -3.58331        2.57174
C          2.39961        4.65209       -1.33661
C          3.13378        3.63313       -1.91153
C          2.88589        2.31986       -1.55722
C          1.91499        2.04152       -0.62425
C          1.18793        3.05374       -0.04251
C          1.41094        4.37728       -0.40166
H          2.58933        5.67530       -1.61275
H          3.89448        3.85964       -2.64048
H          3.43576        1.50924       -2.00939
H          0.43427        2.81747        0.68962
C          0.62372        5.47154        0.22833
Pd        -0.05179        0.12718        1.47479
C          0.72238        2.12261       -4.20014
C         -0.93616       -0.74930       -4.73246
H          1.44315        1.31078       -4.09767
H          0.25662        2.03992       -5.18282
H          1.28016        3.05972       -4.17115
H         -1.64490       -0.01912       -4.34022
H         -0.50016       -0.33995       -5.64457
H         -1.50077       -1.64273       -5.00303
H          0.26411       -6.10170        0.34562
H          1.57810       -4.93316        0.18867
H          0.44869       -4.82030        1.54039
H         -4.22008        1.97089        3.88262
H         -5.28777        2.82791        2.76813
H         -5.93905        1.58955        3.84462
H          2.63866       -3.75580        2.93776
H          3.86121       -4.32192        1.79667
H          4.33772       -3.76141        3.40109
H          1.09168        5.79970        1.15743
H          0.54638        6.33432       -0.43479
H         -0.38985        5.14075        0.46024
