75
-122.81340131
P          1.90592       -0.52936        0.16047
C          1.63140       -1.58041       -1.27043
C          1.89488       -1.11423       -2.53803
C          1.79724       -1.97130       -3.61863
C          1.44162       -3.29071       -3.41937
C          1.17968       -3.75392       -2.14510
C          1.27924       -2.89473       -1.06541
H          1.10050       -3.24558       -0.06094
H          0.89978       -4.78292       -1.99050
H          1.36146       -3.95886       -4.26121
H          1.99723       -1.60889       -4.61350
H          2.17884       -0.08352       -2.67521
C          3.34190       -1.23047        1.00286
C          4.34786       -1.74480        0.21522
C          5.46741       -2.30755        0.80156
C          5.57372       -2.35185        2.17716
C          4.56718       -1.83032        2.96466
C          3.45312       -1.26609        2.37333
H          2.67926       -0.82884        2.97872
H          4.65261       -1.85541        4.03866
H          6.44450       -2.79065        2.63640
H          6.25286       -2.71241        0.18477
H          4.24953       -1.70899       -0.85838
C          2.27053        1.15758       -0.33796
C          3.43299        1.80409        0.00991
C          3.61268        3.14498       -0.30121
C          2.57619        3.82847       -0.93628
C          1.40173        3.19385       -1.27635
C          1.24897        1.82718       -0.99419
O          0.07211        1.13720       -1.32668
C         -1.13299        1.80571       -1.05774
C         -1.28323        3.17626       -1.32185
C         -2.47168        3.79810       -1.00984
C         -3.52696        3.09407       -0.43137
C         -3.35927        1.74303       -0.16233
C         -2.18399        1.10536       -0.48389
P         -1.81646       -0.61842       -0.09728
C         -3.13193       -1.36731        0.88061
C         -2.85208       -2.00451        2.06756
C         -3.87252       -2.59931        2.78648
C         -5.16602       -2.56276        2.30528
C         -5.44002       -1.93957        1.10426
C         -4.41707       -1.34500        0.38792
H         -4.61205       -0.87867       -0.56510
H         -6.44763       -1.91929        0.72272
H         -5.96206       -3.02527        2.86572
H         -3.65716       -3.08985        3.72151
H         -1.83764       -2.03372        2.43094
C         -1.75121       -1.55110       -1.63933
C         -1.41159       -0.93154       -2.82008
C         -1.45716       -1.63512       -4.00895
C         -1.83709       -2.96235       -4.00725
C         -2.16780       -3.58563       -2.82043
C         -2.12709       -2.87542       -1.63409
H         -2.40073       -3.34505       -0.70278
H         -2.46173       -4.62233       -2.81772
H         -1.86866       -3.51429       -4.93242
H         -1.18792       -1.14991       -4.93266
H         -1.09402        0.09710       -2.80351
Pd        -0.06210       -0.04867        1.41992
Cl        -1.79033        0.84004        2.56943
Cl         1.44829        0.95579        2.75253
H         -4.14344        1.19813        0.33173
C         -4.78567        3.78873       -0.05133
H         -5.64417        3.12165       -0.13984
H         -4.96879        4.65196       -0.69243
H         -4.73631        4.13900        0.98041
H         -2.57845        4.85012       -1.20738
S          0.06697        4.06816       -2.04967
H          2.68577        4.87598       -1.15518
C          4.85676        3.85409        0.09926
H          4.19626        1.26925        0.54826
H          4.76281        4.25831        1.10791
H          5.71460        3.18049        0.08485
H          5.07357        4.68181       -0.57721
