58
-89.86868701
P          1.87909       -0.22424        0.50911
C          1.54970        1.53613        0.70647
C          1.28375        2.25966       -0.43428
C          0.98345        3.60644       -0.34665
C          0.95560        4.22257        0.88801
C          1.23278        3.49694        2.02946
C          1.53247        2.15018        1.93770
H          1.76192        1.58482        2.82500
H          1.30384        1.75907       -1.39008
C          3.43245       -0.49240       -0.34744
C          4.28544        0.56209       -0.58102
C          5.47857        0.34676       -1.24686
C          5.80737       -0.92450       -1.67464
C          4.94776       -1.97927       -1.43852
C          3.75546       -1.76094       -0.77116
H          3.06824       -2.57241       -0.58925
H          4.01304        1.54942       -0.24485
C          1.88904       -1.16522        2.09465
C          0.52575       -1.68026        2.53019
C         -0.53993       -0.59695        2.63917
P         -1.38068       -0.30128        1.02493
C         -1.93363        1.40108        0.85083
C         -2.03327        2.23807        1.93924
C         -2.45076        3.54504        1.76334
C         -2.77065        4.00344        0.50046
C         -2.68252        3.15686       -0.58654
C         -2.26612        1.85134       -0.40616
H         -2.20347        1.16937       -1.23880
H         -1.78672        1.87078        2.92185
C         -2.76630       -1.43669        0.90293
C         -2.55540       -2.76009        0.59059
C         -3.63190       -3.62401        0.49870
C         -4.91167       -3.15601        0.72262
C         -5.11836       -1.82731        1.03681
C         -4.03993       -0.96550        1.12680
H         -4.18479        0.07592        1.36618
H         -1.55321       -3.11088        0.40394
Pd         0.01908       -0.67469       -0.79412
Cl         1.32494       -0.80564       -2.61322
Cl        -1.84899       -1.00442       -2.00692
H         -1.33154       -0.87311        3.34061
H         -0.10948        0.33722        2.99951
H          0.18008       -2.44894        1.82547
H          0.62976       -2.20215        3.49441
H          2.59305       -1.99082        1.96408
H          2.32204       -0.51272        2.85422
H          0.76475        4.16956       -1.23891
H          1.21277        3.97923        2.99298
H          6.14790        1.17044       -1.43348
H          5.20161       -2.97027       -1.77720
H         -2.52289        4.20563        2.61170
H         -2.93685        3.51058       -1.57209
H         -3.47115       -4.65957        0.24763
H         -6.11705       -1.46085        1.20869
H          0.71547        5.27073        0.96111
H          6.73528       -1.09333       -2.19637
H         -3.09226        5.02298        0.36350
H         -5.75092       -3.82827        0.64880
