171
-217.84710232
P         -1.55318        0.34965       -0.44527
P          1.61005       -0.39394       -0.16272
C         -0.75109        1.32782       -1.71731
C          1.02430       -1.35239       -1.56694
C          0.10559        0.72035       -2.62745
C          0.76950        1.52556       -3.57309
C          0.52579        2.88909       -3.59022
C         -0.34648        3.46770       -2.69233
C         -0.97929        2.68123       -1.74965
C          1.23730       -2.70944       -1.54765
C          0.73841       -3.50697       -2.55840
C          0.00696       -2.93623       -3.57811
C         -0.22235       -1.57092       -3.61576
C          0.31325       -0.75348       -2.60151
Cl         1.29018        0.14764        3.06572
Cl        -1.85150       -0.56836        2.73014
C         -1.04006       -1.00217       -4.72258
C          1.70870        0.93489       -4.56565
H         -0.53249        4.52877       -2.72441
H         -1.65692        3.12314       -1.03698
H          1.79416       -3.14930       -0.73629
H          0.91268       -4.57042       -2.54373
H          1.02948        3.50022       -4.32009
H         -0.40218       -3.55530       -4.35873
C         -3.76289       -3.24157       -2.07036
C         -2.82470       -3.43576       -1.06434
C         -2.15020       -2.32131       -0.58245
C         -2.39292       -1.08077       -1.11643
C         -3.30544       -0.90779       -2.12786
C         -4.01916       -1.99285       -2.62287
H         -4.32690       -4.08681       -2.41897
H         -1.43632       -2.40847        0.21800
H         -3.46353        0.08466       -2.51499
C         -4.52283        2.78244        1.98406
C         -3.16689        3.06391        2.11084
C         -2.27529        2.34008        1.32997
C         -2.72467        1.35850        0.48174
C         -4.06587        1.08686        0.37923
C         -4.99582        1.79887        1.12316
H         -5.22590        3.33417        2.57761
H         -1.21710        2.52505        1.40500
H         -4.39292        0.29776       -0.27450
C          4.45473       -2.78797        2.44199
C          3.11246       -3.14777        2.41995
C          2.25576       -2.42263        1.60062
C          2.73094       -1.37750        0.84752
C          4.05923       -1.03405        0.88753
C          4.95281       -1.73531        1.68397
H          5.12081       -3.33766        3.08003
H          1.20432       -2.64983        1.56431
H          4.40274       -0.19767        0.30486
C          3.77440        3.45445       -1.13336
C          2.74546        3.48269       -0.19960
C          2.06401        2.29819        0.04585
C          2.41580        1.14279       -0.60655
C          3.43983        1.12927       -1.52132
C          4.14514        2.29356       -1.80142
H          4.31859        4.35654       -1.33958
H          1.26020        2.26816        0.76051
H          3.69199        0.19798       -1.99960
Pd        -0.14002       -0.10903        1.35309
C         -2.27614       -5.82038       -1.63417
C         -2.59332       -4.83935       -0.48961
C         -3.86365       -5.29486        0.24948
C         -1.41304       -4.85504        0.50065
H         -3.11042       -5.90645       -2.32899
H         -1.40541       -5.48602       -2.19698
H         -2.06459       -6.81655       -1.24599
H         -3.73005       -6.28648        0.68147
H         -4.10698       -4.60401        1.05657
H         -4.71826       -5.33484       -0.42517
H         -0.49837       -4.50819        0.02057
H         -1.61448       -4.21954        1.36274
H         -1.23231       -5.86382        0.87155
C         -6.48572       -2.07375       -3.01303
C         -5.12012       -1.83146       -3.68067
C         -4.91303       -2.85116       -4.81735
C         -5.11427       -0.41689       -4.29325
H         -6.54594       -3.07926       -2.59756
H         -6.64800       -1.36695       -2.19951
H         -7.29813       -1.95683       -3.73001
H         -3.93315       -2.72754       -5.27656
H         -4.98609       -3.87540       -4.45457
H         -5.66609       -2.72361       -5.59487
H         -5.33191        0.34023       -3.54045
H         -4.14833       -0.18861       -4.74293
H         -5.87181       -0.32962       -5.07198
C         -1.65648        3.39875        4.08064
C         -2.62206        4.09949        3.10486
C         -3.74963        4.75749        3.92282
C         -1.87198        5.19886        2.33338
H         -0.80961        2.95867        3.55585
H         -1.26403        4.10167        4.81506
H         -2.16579        2.59780        4.61593
H         -3.34280        5.48233        4.62788
H         -4.44847        5.28566        3.27444
H         -4.30254        4.01407        4.49672
H         -1.03275        4.78268        1.78027
H         -2.53304        5.69023        1.61973
H         -1.48124        5.95695        3.01193
C         -6.70248       -0.02102        1.36304
C         -6.48525        1.45527        0.97983
C         -6.91764        1.67875       -0.48134
C         -7.36460        2.33234        1.89120
H         -7.75594       -0.29151        1.29390
H         -6.14425       -0.68795        0.70692
H         -6.37185       -0.20525        2.38496
H         -7.97488        1.45051       -0.61524
H         -6.75513        2.71509       -0.77675
H         -6.35122        1.04504       -1.16251
H         -7.25402        3.38824        1.64501
H         -8.41754        2.07549        1.77558
H         -7.10451        2.19176        2.94016
C          1.10564       -4.54435        3.12245
C          2.61032       -4.28200        3.32430
C          2.84330       -3.89179        4.79512
C          3.37696       -5.57690        2.99825
H          0.89774       -4.82761        2.09151
H          0.76374       -5.35642        3.76387
H          0.51555       -3.66121        3.36696
H          3.90236       -3.74186        5.00154
H          2.32210       -2.96438        5.03211
H          2.47768       -4.66724        5.46794
H          3.24336       -5.84928        1.95142
H          4.44475       -5.46395        3.18136
H          3.02072       -6.40521        3.61050
C          7.00953       -1.41033        0.28744
C          6.42664       -1.30663        1.70925
C          7.26350       -2.19590        2.64829
C          6.52011        0.15046        2.20041
H          6.47970       -0.75812       -0.40559
H          8.06132       -1.12510        0.27468
H          6.93102       -2.43059       -0.08749
H          6.89898       -2.13556        3.67358
H          7.23407       -3.23807        2.33079
H          8.30699       -1.88105        2.65060
H          5.98632        0.82830        1.53510
H          6.08608        0.24924        3.19513
H          7.55765        0.48037        2.24923
C          1.05194        5.31502       -0.12494
C          2.33205        4.77038        0.52764
C          3.43285        5.84608        0.44258
C          2.07039        4.47469        2.01879
H          0.25515        4.57362       -0.08955
H          0.70401        6.21507        0.38160
H          1.22972        5.56249       -1.17119
H          4.37830        5.46690        0.83025
H          3.58740        6.17577       -0.58434
H          3.16058        6.72468        1.02738
H          1.83589        5.39007        2.56184
H          1.23278        3.79276        2.15368
H          2.94782        4.02347        2.48143
C          6.61893        2.63421       -1.94745
C          5.34787        2.31373       -2.75548
C          5.13517        3.39112       -3.83566
C          5.54527        0.95381       -3.45368
H          6.54505        3.60902       -1.46653
H          6.77782        1.88900       -1.16813
H          7.49879        2.64371       -2.59050
H          4.21503        3.20856       -4.38919
H          5.06902        4.38638       -3.39822
H          5.96074        3.39705       -4.54716
H          4.66326        0.67420       -4.02819
H          6.38946        0.99179       -4.14204
H          5.74875        0.16547       -2.72951
H         -1.94471       -1.59131       -4.87457
H          2.11166       -0.01600       -4.21424
H         -0.48135       -0.99976       -5.65949
H         -1.34829        0.02196       -4.50848
H          2.55031        1.60246       -4.75147
H          1.20820        0.75882       -5.51863
