64
-97.22034166
Cl        -1.30339       -0.26641       -2.80188
Cl         1.83609       -0.65972       -2.95972
P          1.97414       -0.69485        0.33380
C          2.08483       -2.44143        0.94685
C          3.79028       -0.34490        0.14228
P         -1.28393       -0.32792        0.37280
C          1.19457        0.44473        1.53595
C         -0.24914        0.58732        1.58089
C         -0.55993        1.61155        2.56680
C          0.69386        2.09993        3.11607
C          1.78218        1.35966        2.50095
H         -1.55936        1.92915        2.87019
H          0.79777        2.85958        3.89465
Pd         0.32218       -0.69301       -1.30812
H          2.84838        1.48397        2.70084
C         -5.16670        1.71806       -0.87010
C         -4.88840        0.42557       -1.26751
C         -3.70490       -0.17539       -0.87674
C         -2.80465        0.51573       -0.09812
C         -3.08618        1.80088        0.30553
C         -4.26659        2.40690       -0.08192
H         -6.08685        2.18927       -1.17512
H         -5.58872       -0.11417       -1.88355
H         -3.47266       -1.18315       -1.18372
H         -2.38012        2.33038        0.91949
H         -4.48235        3.41553        0.23047
C         -2.44744       -4.41094        1.98459
C         -2.03534       -4.28575        0.67209
C         -1.68553       -3.04321        0.17543
C         -1.74612       -1.94058        0.99607
C         -2.16423       -2.05619        2.30165
C         -2.51517       -3.29826        2.80043
H         -2.72000       -5.37900        2.37227
H         -1.98754       -5.15339        0.03472
H         -1.37278       -2.92701       -0.84989
H         -2.20685       -1.17610        2.92413
H         -2.83960       -3.39606        3.82340
C          4.15787        0.51123       -1.04988
H          4.09134        0.15064        1.07465
C          4.39721       -1.75716        0.08484
H          5.45568       -1.73207        0.38604
C          3.59313       -2.75416        0.95733
H          4.39563       -2.09785       -0.95995
C          1.43938       -2.56934        2.30973
H          1.56343       -3.05766        0.20229
H          3.95686       -2.70464        1.99250
H          3.77244       -3.79057        0.63486
H          1.49965       -3.59274        2.68722
H          1.93386       -1.91697        3.03224
H          0.38810       -2.28133        2.28208
H          5.24134        0.60432       -1.14858
H          3.78384        0.07138       -1.97397
H          3.74911        1.51765       -0.96808
Fe         0.66967        2.34713        1.11271
C          1.98245        3.40361       -0.04227
C          1.03347        4.33245        0.54699
C         -0.29404        3.86836        0.18048
C         -0.16186        2.73605       -0.72024
C          1.25045        2.44441       -0.85091
H          3.06924        3.47512        0.04171
H          1.27011        5.18254        1.18999
H         -1.23145        4.36160        0.44861
H         -0.96654        2.20149       -1.22909
H          1.66849        1.67135       -1.49893
