45
-71.82115971
C          0.37937        1.49436        3.16547
P         -0.16069        0.77576        1.57870
P         -0.14393        0.78462       -1.55475
C          0.47484        1.53925       -3.09485
Cl         2.95680        0.17028        1.70972
H          0.77892        2.49116        3.00238
H          1.25657        0.91619       -3.52003
Cl         3.01497       -0.08918       -1.57200
C         -1.32853        1.83343        0.69683
C         -1.32038        1.83720       -0.68108
C         -2.23328        2.60066       -1.37954
C         -3.15422        3.36977       -0.69035
C         -3.16289        3.36581        0.69109
C         -2.25063        2.59293        1.38761
H         -2.22579        2.58496       -2.45732
H         -3.86767        3.96844       -1.23238
H         -3.88313        3.96146        1.22745
H         -2.25726        2.57145        2.46521
Pd         1.49868        0.35995        0.01419
H          0.88305        2.52395       -2.88590
H          1.15336        0.87213        3.60556
H         -0.33213        1.63319       -3.81581
C         -1.80915       -3.41117       -2.05903
C         -0.44534       -3.19699       -2.10163
C          0.05247       -1.91390       -1.97059
C         -0.81359       -0.85917       -1.79767
C         -2.17263       -1.06589       -1.75311
C         -2.67424       -2.34804       -1.88699
H         -2.19936       -4.41097       -2.15738
H          0.23007       -4.02659       -2.23084
H          1.11417       -1.72307       -1.98435
H         -2.83240       -0.22706       -1.60035
H         -3.73783       -2.51693       -1.84879
C         -1.75415       -3.46609        1.89036
C         -2.62572       -2.42512        1.63565
C         -2.14844       -1.12894        1.56222
C         -0.80765       -0.88645        1.74936
C          0.06538       -1.91895        2.00274
C         -0.40828       -3.21601        2.07462
H         -2.12480       -4.47680        1.94169
H         -3.67439       -2.62218        1.48517
H         -2.81159       -0.30699        1.34576
H          1.11526       -1.70048        2.12026
H          0.27271       -4.02856        2.26729
H         -0.45849        1.55366        3.85418
