105
-153.06661273
Cl        -0.52689        2.49827       -2.80790
Pd         0.16525        1.62916       -0.84838
P          1.32548        0.64719        0.95848
N          1.30092       -1.10191        1.04856
C          0.23765       -1.99555        1.23519
C         -0.10842       -2.85539        0.16426
C         -1.10027       -3.83409        0.33062
C         -1.44506       -4.72585       -0.83666
C         -2.30664       -5.94345       -0.46387
C         -3.42211       -5.55071        0.51124
C         -2.83471       -4.96346        1.80430
C         -1.74600       -3.94914        1.56419
C         -1.38684       -3.10082        2.60829
C         -0.41869       -2.14076        2.45262
H         -0.16217       -1.48904        3.26690
H         -1.89203       -3.20034        3.55409
H         -3.62699       -4.49832        2.40491
H         -4.07190       -4.80465        0.03642
H         -2.72534       -6.41633       -1.36337
H         -1.96448       -4.12931       -1.59523
C          0.53951       -2.58256       -1.14525
C         -0.10632       -1.66265       -2.01306
C          0.61903       -1.10703       -3.06752
C          1.92101       -1.47697       -3.28865
C          2.55975       -2.40523       -2.47176
C          3.99773       -2.75188       -2.75690
C          4.73801       -3.28761       -1.52248
C          3.92794       -4.40679       -0.85900
C          2.54136       -3.90633       -0.41904
C          1.87107       -2.96455       -1.39212
H          1.87122       -4.75656       -0.23976
H          4.47805       -4.83043       -0.00705
H          4.88408       -2.47060       -0.80438
H          4.51064       -1.86856       -3.15791
H          2.46796       -1.04131       -4.10768
H          0.14046       -0.37232       -3.69066
N         -1.43678       -1.27462       -1.76794
P         -1.71682        0.21019       -0.86431
C         -2.41147       -0.10674        0.75351
C         -3.46832       -0.97427        0.89421
C         -4.01835       -1.18518        2.14632
C         -3.51116       -0.53111        3.26172
C         -2.46098        0.36047        3.09214
C         -1.91749        0.57144        1.83938
H         -1.10905        1.26694        1.70302
H         -2.06462        0.88317        3.94567
C         -4.10405       -0.75742        4.60832
H         -4.84392       -1.86585        2.26530
H         -3.86448       -1.47817        0.02705
C         -2.87881        1.25199       -1.74225
C         -3.35946        2.40120       -1.16216
C         -4.24294        3.20190       -1.86338
C         -4.65208        2.85181       -3.14369
C         -4.14770        1.68973       -3.71284
C         -3.26433        0.89045       -3.00953
H         -2.86167       -0.01099       -3.44300
H         -4.44503        1.41827       -4.71126
C         -5.57736        3.73171       -3.90982
H         -4.61634        4.10952       -1.42082
H         -3.03820        2.66920       -0.16801
H         -2.00762       -1.93096       -1.25081
H          1.77615       -1.23354        0.16381
C          1.04729        1.46738        2.52170
C          1.20979        0.77260        3.69554
C          0.96097        1.40020        4.90274
C          0.55272        2.72727        4.93696
C          0.43174        3.42161        3.74016
C          0.68174        2.79250        2.53471
H          0.61726        3.33016        1.60196
H          0.14429        4.45892        3.75851
C          0.30041        3.40853        6.23669
H          1.08334        0.86177        5.82698
H          1.54589       -0.25088        3.66066
C          3.03161        0.94685        0.46513
C          3.44771        0.52354       -0.77417
C          4.75552        0.73398       -1.17023
C          5.65720        1.36253       -0.32279
C          5.21567        1.79023        0.92216
C          3.90684        1.57943        1.31534
H          3.56300        1.90930        2.28203
H          5.90300        2.29295        1.58090
C          7.05820        1.61339       -0.76016
H          5.08247        0.41622       -2.14538
H          2.74818        0.03423       -1.43210
Cl         1.73589        3.24321       -0.72830
H         -2.42953       -5.77016        2.42668
H         -1.67259       -6.70836        0.00169
H         -4.07067       -6.41085        0.72985
H         -0.51329       -5.05314       -1.31516
H          3.80726       -5.23393       -1.56972
H          2.62849       -3.39968        0.54940
H          4.02593       -3.49830       -3.55957
H          5.74697       -3.63466       -1.78663
H         -4.47093       -1.77990        4.70917
H         -3.36710       -0.59169        5.39553
H         -4.94103       -0.07985        4.78216
H         -5.02018        4.48534       -4.46788
H         -6.17030        3.15567       -4.62160
H         -6.27002        4.24893       -3.24441
H          1.21386        3.86781        6.61690
H         -0.45169        4.19166        6.13107
H         -0.05983        2.70352        6.98723
H          7.73806        1.64347        0.09243
H          7.40645        0.82884       -1.43348
H          7.13426        2.56634       -1.28547
