171
-217.84767477
P         -1.59917        0.40281       -0.42800
P          1.61809       -0.33798       -0.22501
C         -0.81611        1.40540       -1.69749
C          1.01523       -1.25478       -1.64825
C          0.05835        0.84252       -2.62028
C          0.72076        1.68913       -3.53003
C          0.45570        3.04814       -3.50710
C         -0.43613        3.58314       -2.60221
C         -1.06266        2.75668       -1.69024
C          1.25574       -2.60655       -1.68818
C          0.76886       -3.36890       -2.73188
C          0.02326       -2.76945       -3.72453
C         -0.23412       -1.40887       -3.70123
C          0.28633       -0.62723       -2.65181
Cl         1.45561        0.44896        2.90267
Cl        -1.71456       -0.32560        2.82475
C         -1.03947       -0.79775       -4.79430
C          1.69054        1.15202       -4.52382
H         -0.64052        4.64132       -2.60293
H         -1.74931        3.16818       -0.96814
H          1.82753       -3.06800       -0.89905
H          0.96956       -4.42709       -2.76895
H          0.95888        3.68988       -4.21063
H         -0.36929       -3.36124       -4.53424
C         -3.55510       -3.43458       -1.80846
C         -2.66517       -3.47679       -0.74201
C         -2.05842       -2.28868       -0.35956
C         -2.33420       -1.11807       -1.02114
C         -3.21687       -1.09097       -2.07253
C         -3.85081       -2.25733       -2.48588
H         -4.04969       -4.33708       -2.11439
H         -1.37841       -2.27232        0.47479
H         -3.41413       -0.14940       -2.55607
C         -4.66801        2.80104        1.89095
C         -3.32148        3.09626        2.06427
C         -2.39753        2.36670        1.32733
C         -2.81387        1.37270        0.47643
C         -4.14777        1.08566        0.32779
C         -5.10717        1.80190        1.03141
H         -5.39629        3.35943        2.44993
H         -1.34233        2.55394        1.42782
H         -4.43323        0.28822       -0.33460
C          4.27380       -3.01716        2.29391
C          2.89694       -3.19122        2.35782
C          2.10398       -2.37444        1.56235
C          2.67064       -1.40113        0.77668
C          4.03161       -1.22573        0.74766
C          4.86510       -2.03928        1.50400
H          4.90623       -3.66191        2.87554
H          1.03359       -2.48371        1.56074
H          4.43862       -0.44422        0.13192
C          3.86770        3.47392       -1.15933
C          2.83328        3.51071       -0.23206
C          2.14100        2.33264        0.01021
C          2.47937        1.17493       -0.64453
C          3.50306        1.15397       -1.55960
C          4.22329        2.31134       -1.83332
H          4.42800        4.36861       -1.35480
H          1.33896        2.31361        0.72782
H          3.73803        0.22455       -2.04970
Pd        -0.09334        0.02247        1.31647
C         -0.86179       -5.10293       -0.12592
C         -2.35358       -4.76243        0.03686
C         -3.18539       -5.95525       -0.47156
C         -2.67883       -4.54287        1.52698
H         -0.59528       -5.98623        0.45417
H         -0.62763       -5.30308       -1.17070
H         -0.23072       -4.27950        0.20434
H         -2.95953       -6.85513        0.10048
H         -4.25288       -5.75937       -0.37194
H         -2.96829       -6.16774       -1.51822
H         -2.47248       -5.44124        2.10841
H         -2.08895       -3.73052        1.94892
H         -3.73088       -4.29030        1.65704
C         -6.26494       -2.65769       -3.01207
C         -4.89944       -2.26762       -3.60750
C         -4.49533       -3.29097       -4.68556
C         -5.03651       -0.88366       -4.27195
H         -6.23175       -3.65082       -2.56541
H         -6.56218       -1.95259       -2.23620
H         -7.03892       -2.66161       -3.77936
H         -5.20921       -3.29094       -5.50910
H         -3.51228       -3.05850       -5.09256
H         -4.45759       -4.30146       -4.28079
H         -5.36661       -0.13385       -3.55328
H         -4.09005       -0.55683       -4.70072
H         -5.77113       -0.91231       -5.07658
C         -1.35941        4.28826        3.16278
C         -2.89385        4.17903        3.06484
C         -3.44059        3.82501        4.46041
C         -3.45513        5.53835        2.61179
H         -0.92674        4.57411        2.20536
H         -1.06997        5.04436        3.89237
H         -0.91799        3.34173        3.47467
H         -3.07549        2.84837        4.77781
H         -3.12627        4.56040        5.20076
H         -4.52932        3.79305        4.46497
H         -3.08679        5.79439        1.61843
H         -4.54371        5.52229        2.57109
H         -3.15758        6.33161        3.29736
C         -6.87357        0.37353       -0.11618
C         -6.60701        1.50217        0.90016
C         -7.34091        2.76915        0.42410
C         -7.15672        1.06493        2.27009
H         -7.94183        0.17648       -0.20482
H         -6.50449        0.64217       -1.10582
H         -6.39246       -0.55447        0.19245
H         -8.40710        2.57932        0.30141
H         -7.22810        3.58464        1.13747
H         -6.94532        3.10535       -0.53419
H         -7.03673        1.85168        3.01397
H         -8.21778        0.82433        2.20650
H         -6.63047        0.18123        2.63055
C          0.77044       -4.07187        3.43741
C          2.28976       -4.27151        3.26437
C          2.93606       -4.20744        4.66229
C          2.54458       -5.65122        2.63516
H          0.24556       -4.20810        2.49394
H          0.36145       -4.79455        4.14323
H          0.54828       -3.07367        3.81471
H          2.47009       -4.92342        5.33912
H          3.99973       -4.43763        4.62467
H          2.82073       -3.21282        5.09265
H          2.09292       -5.71225        1.64505
H          3.61245       -5.83969        2.52733
H          2.12173       -6.44571        3.24978
C          6.87936       -1.56337        2.91844
C          6.39185       -1.87890        1.49249
C          6.83529       -0.73299        0.56118
C          7.03712       -3.18641        0.99828
H          7.95975       -1.42153        2.93921
H          6.41145       -0.65241        3.29124
H          6.63578       -2.37054        3.60821
H          6.52542       -0.92098       -0.46656
H          6.41208        0.21872        0.88213
H          7.92021       -0.62903        0.56421
H          6.79516       -4.02084        1.65547
H          6.68390       -3.43514       -0.00234
H          8.12257       -3.09580        0.96048
C          1.03912        5.22907        0.05545
C          2.43507        4.78588        0.52445
C          3.42951        5.93459        0.26928
C          2.40674        4.49816        2.03870
H          1.05200        5.47196       -1.00653
H          0.30628        4.43791        0.20750
H          0.70327        6.11141        0.59988
H          4.43875        5.65123        0.56766
H          3.44544        6.21532       -0.78359
H          3.15110        6.82045        0.84003
H          2.16002        5.39788        2.60203
H          1.66650        3.73966        2.28880
H          3.37801        4.14129        2.38033
C          5.23444        3.41897       -3.85450
C          5.42486        2.32195       -2.78966
C          5.59334        0.96838       -3.50753
C          6.70342        2.60669       -1.98045
H          4.31251        3.26318       -4.41287
H          5.18740        4.40900       -3.40298
H          6.06135        3.41907       -4.56449
H          6.43540        0.99974       -4.19881
H          5.78469        0.16637       -2.79509
H          4.70359        0.71379       -4.08209
H          6.85079        1.84698       -1.21334
H          7.58174        2.61002       -2.62569
H          6.64835        3.57521       -1.48451
H         -1.86105       -1.45249       -5.08488
H          2.56908        1.79341       -4.59250
H         -0.42620       -0.62259       -5.67909
H         -1.47060        0.15579       -4.48629
H          1.24142        1.09617       -5.51627
H          2.03258        0.15324       -4.24942
