171
-217.84720936
P         -1.60325        0.43374       -0.35432
P          1.58719       -0.31867       -0.23238
C         -0.82742        1.49050       -1.58837
C          0.96307       -1.18374       -1.67660
C          0.03277        0.96681       -2.54777
C          0.70447        1.85336       -3.41195
C          0.46408        3.21327       -3.30906
C         -0.41335        3.71086       -2.36964
C         -1.05086        2.84365       -1.50493
C          1.18498       -2.53538       -1.77341
C          0.68899       -3.24416       -2.85017
C         -0.04121       -2.59036       -3.82017
C         -0.27825       -1.22804       -3.73939
C          0.24627       -0.50201       -2.65274
Cl         1.45158        0.30530        2.99107
Cl        -1.76847       -0.36132        2.77787
C         -1.06106       -0.55325       -4.81111
C          1.67351        1.36286       -4.43036
H         -0.59553        4.77107       -2.30377
H         -1.72811        3.22686       -0.75954
H          1.75055       -3.03723       -1.00478
H          0.87260       -4.30290       -2.93215
H          0.97871        3.88576       -3.97461
H         -0.43699       -3.14038       -4.65725
C         -3.51842       -3.37913       -1.85569
C         -2.63631       -3.44561       -0.78413
C         -2.03833       -2.26524       -0.36481
C         -2.31501       -1.07886       -0.99728
C         -3.19275       -1.02750       -2.05212
C         -3.81795       -2.18529       -2.50114
H         -4.00392       -4.27593       -2.19151
H         -1.36681       -2.26642        0.47651
H         -3.39517       -0.07343       -2.50828
C         -4.75103        2.67051        2.02609
C         -3.41882        3.04223        2.16569
C         -2.47377        2.36552        1.40668
C         -2.85028        1.34947        0.56419
C         -4.16875        0.98593        0.44940
C         -5.15064        1.64632        1.17630
H         -5.50240        3.18084        2.59866
H         -1.43031        2.61995        1.48745
H         -4.42404        0.17086       -0.20374
C          4.23770       -3.07257        2.22006
C          2.86034       -3.25161        2.27182
C          2.06717       -2.41910        1.49209
C          2.63253       -1.42261        0.73525
C          3.99274       -1.24157        0.72295
C          4.82717       -2.06937        1.46005
H          4.86291       -3.73430        2.78856
H          0.99707       -2.52929        1.48596
H          4.41088       -0.44082        0.13943
C          3.94082        3.41011       -1.22465
C          2.88007        3.50505       -0.33257
C          2.16885        2.34726       -0.04625
C          2.49451        1.16351       -0.65905
C          3.52716        1.09123       -1.56135
C          4.28166        2.22052       -1.85698
H          4.53287        4.28584       -1.41579
H          1.36005        2.35687        0.66327
H          3.74315        0.14283       -2.02336
Pd        -0.07121        0.04904        1.36632
C         -0.83464       -5.08320       -0.19449
C         -2.32867       -4.75068       -0.03695
C         -3.15165       -5.93224       -0.58483
C         -2.67094       -4.57125        1.45471
H         -0.57081       -5.97887        0.36753
H         -0.59036       -5.25873       -1.24138
H         -0.20910       -4.26567        0.15940
H         -2.92882       -6.84603       -0.03404
H         -4.22071       -5.74214       -0.49109
H         -2.92322       -6.11685       -1.63436
H         -3.72669       -4.33189        1.57987
H         -2.46202       -5.48176        2.01599
H         -2.09405       -3.76359        1.90257
C         -6.21926       -2.61764       -3.06451
C         -4.85794       -2.17237       -3.63059
C         -4.42115       -3.14114       -4.74545
C         -5.02221       -0.76535       -4.23773
H         -6.16863       -3.62869       -2.66199
H         -6.53771       -1.95415       -2.26092
H         -6.98705       -2.60394       -3.83788
H         -5.12831       -3.12488       -5.57460
H         -3.44068       -2.86923       -5.13370
H         -4.36186       -4.16578       -4.38070
H         -5.36921       -0.05311       -3.48936
H         -4.08201       -0.40142       -4.64979
H         -5.75418       -0.77585       -5.04521
C         -1.83463        3.63323        4.02276
C         -2.96177        4.16076        3.11232
C         -4.11373        4.65542        4.00803
C         -2.44314        5.34296        2.27553
H         -0.95528        3.34693        3.44768
H         -1.52554        4.39243        4.74085
H         -2.16826        2.75729        4.57860
H         -4.52812        3.83791        4.59779
H         -3.76336        5.42019        4.70111
H         -4.91463        5.09482        3.41389
H         -2.09402        6.15292        2.91571
H         -1.61515        5.03716        1.63809
H         -3.23072        5.73457        1.63202
C         -7.12095        0.78145        2.45982
C         -6.63304        1.25874        1.08000
C         -6.85772        0.12257        0.06188
C         -7.45309        2.48221        0.63124
H         -8.16710        0.47836        2.42091
H         -6.53400       -0.07132        2.80051
H         -7.02914        1.56964        3.20618
H         -7.91462       -0.13540       -0.00363
H         -6.52797        0.41851       -0.93386
H         -6.31692       -0.77809        0.35218
H         -7.10167        2.84756       -0.33357
H         -8.50855        2.22910        0.53225
H         -7.37283        3.29866        1.34786
C          2.45898       -5.71239        2.45777
C          2.25047       -4.35497        3.14893
C          0.74111       -4.12682        3.36758
C          2.92839       -4.36553        4.53367
H          2.03111       -6.52224        3.04839
H          1.98528       -5.72191        1.47625
H          3.51974       -5.91949        2.31828
H          0.33295       -4.86253        4.06032
H          0.55229       -3.13627        3.78143
H          0.18932       -4.22059        2.43473
H          2.85515       -3.38511        5.00396
H          2.45309       -5.09148        5.19319
H          3.98246       -4.62981        4.46453
C          6.83844       -1.97293       -0.03417
C          6.34330       -1.83180        1.41728
C          7.10477       -2.84273        2.29553
C          6.64597       -0.41123        1.93050
H          6.61152       -2.96513       -0.42372
H          6.36389       -1.24126       -0.68667
H          7.91630       -1.82374       -0.09542
H          6.79763       -2.76554        3.33835
H          6.93158       -3.86436        1.95783
H          8.17836       -2.65924        2.25379
H          6.16890        0.34525        1.30839
H          6.27960       -0.28451        2.94898
H          7.71810       -0.21563        1.92947
C          2.38270        5.93419       -0.73927
C          2.55141        4.84563        0.33765
C          3.69951        5.22675        1.28802
C          1.24308        4.76339        1.14837
H          1.60449        5.65551       -1.44886
H          2.10351        6.88693       -0.28966
H          3.30462        6.08982       -1.29785
H          3.83678        4.46076        2.05109
H          4.63929        5.33136        0.74670
H          3.49375        6.17187        1.79019
H          0.99194        5.73255        1.57903
H          0.41369        4.45577        0.51234
H          1.33123        4.05299        1.96999
C          5.45011        3.30177       -3.81163
C          5.51049        2.16217       -2.77585
C          5.58873        0.82287       -3.53539
C          6.77723        2.31390       -1.91486
H          6.29354        3.24570       -4.49966
H          4.53433        3.24528       -4.39865
H          5.48173        4.27972       -3.33355
H          6.44007        0.81367       -4.21588
H          5.71186       -0.01408       -2.84886
H          4.68962        0.65372       -4.12692
H          6.83716        1.51683       -1.17393
H          7.67590        2.27215       -2.53000
H          6.77745        3.26468       -1.38258
H         -0.42355       -0.30238       -5.65977
H          2.58458        1.96133       -4.41393
H         -1.51961        0.36764       -4.44810
H         -1.85996       -1.19831       -5.17688
H          1.25090        1.42643       -5.43400
H          1.95816        0.32606       -4.24674
