75
-122.81090196
P          1.75927       -0.63897       -0.15080
C          1.74615       -1.53923       -1.71319
C          2.17550       -2.84707       -1.73475
C          2.24600       -3.53076       -2.93516
C          1.89096       -2.89757       -4.10960
C          1.45853       -1.58681       -4.08497
C          1.38419       -0.91009       -2.88210
H          1.02470        0.10394       -2.84508
H          1.17066       -1.09399       -4.99899
H          1.94508       -3.42903       -5.04566
H          2.58087       -4.55483       -2.95286
H          2.46399       -3.32571       -0.81267
C          3.03451       -1.41134        0.85968
C          2.70260       -2.09211        2.00848
C          3.69214       -2.70462        2.75528
C          5.00707       -2.64221        2.33930
C          5.33351       -1.97634        1.17486
C          4.34141       -1.36432        0.43039
H          4.57816       -0.86656       -0.49687
H          6.35815       -1.93618        0.84354
H          5.77904       -3.11825        2.92164
H          3.43589       -3.22964        3.66080
H          1.67160       -2.14416        2.31903
C          2.15085        1.08959       -0.49571
C          3.31431        1.72726       -0.13301
C          3.48161        3.08374       -0.37491
C          2.43781        3.79438       -0.96682
C          1.25956        3.17381       -1.31723
C          1.11196        1.79786       -1.08134
O         -0.08697        1.13308       -1.38367
C         -1.26534        1.81092       -1.03297
C         -1.42572        3.17978       -1.30008
C         -2.60437        3.80222       -0.95220
C         -3.63257        3.10524       -0.31763
C         -3.43915        1.76485       -0.01113
C         -2.27359        1.12928       -0.36914
P         -1.86613       -0.54395        0.14320
C         -3.26934       -1.25278        1.03275
C         -4.18669       -1.98702        0.31418
C         -5.28104       -2.54337        0.95156
C         -5.45378       -2.35787        2.30849
C         -4.53864       -1.61389        3.02541
C         -3.44902       -1.05939        2.38239
H         -2.74780       -0.45118        2.92562
H         -4.67647       -1.45932        4.08301
H         -6.30571       -2.79035        2.80738
H         -5.99645       -3.12041        0.38899
H         -4.04210       -2.12404       -0.74556
C         -1.58840       -1.61124       -1.27300
C         -1.18543       -2.90848       -1.05281
C         -1.07876       -3.78309       -2.11938
C         -1.38352       -3.35225       -3.39548
C         -1.79052       -2.05011       -3.60964
C         -1.89607       -1.17762       -2.54209
H         -2.21991       -0.16023       -2.69035
H         -2.02435       -1.71308       -4.60604
H         -1.29691       -4.03208       -4.22726
H         -0.75849       -4.79843       -1.95328
H         -0.97059       -3.23393       -0.04683
Pd         0.07672        0.00468        1.41090
Cl        -1.37135        1.14453        2.71036
Cl         1.75589        0.81263        2.68148
H         -4.19242        1.22300        0.53418
C         -4.87987        3.80204        0.09407
H         -5.73147        3.12048        0.08574
H         -5.10989        4.62864       -0.57939
H         -4.78135        4.20568        1.10253
H         -2.72232        4.85093       -1.16050
S         -0.08696        4.06613       -2.05506
H          2.54447        4.85030       -1.14209
C          4.72694        3.77669        0.04971
H          4.08772        1.17889        0.37368
H          4.91662        4.65846       -0.56364
H          4.65382        4.09811        1.08940
H          5.59207        3.11829       -0.03919
