64
-97.22320715
Cl        -1.25534       -0.20568       -2.85776
Cl         1.87836       -0.80775       -2.92287
P          1.94630       -0.69324        0.34198
C          2.04297       -2.44716        0.93787
C          3.76520       -0.36764        0.13847
P         -1.26110       -0.30995        0.38487
C          1.19704        0.45036        1.55825
C         -0.24346        0.61451        1.59946
C         -0.56136        1.60387        2.61877
C          0.69651        2.10128        3.14858
C          1.78369        1.37704        2.51210
H         -1.56003        1.91101        2.93370
H          0.80490        2.85365        3.93317
Pd         0.31400       -0.67935       -1.32513
H          2.85058        1.50530        2.70547
C         -5.14238        1.71988       -0.88822
C         -4.83196        0.44861       -1.32812
C         -3.64972       -0.14901       -0.92856
C         -2.78224        0.52522       -0.09967
C         -3.09630        1.78834        0.34713
C         -4.27580        2.39079       -0.04865
H         -6.06176        2.18832       -1.19977
H         -5.50639       -0.07719       -1.98382
H         -3.39285       -1.14033       -1.26771
H         -2.41647        2.30276        1.00224
H         -4.51718        3.38237        0.29771
C         -2.42312       -4.38754        2.01314
C         -2.01672       -4.26717        0.69845
C         -1.66700       -3.02686        0.19618
C         -1.72196       -1.92138        1.01346
C         -2.13442       -2.03235        2.32123
C         -2.48523       -3.27215        2.82566
H         -2.69567       -5.35389        2.40509
H         -1.97322       -5.13693        0.06366
H         -1.35765       -2.91533       -0.83067
H         -2.17280       -1.15025        2.94111
H         -2.80543       -3.36603        3.85033
C          4.13388        0.54019       -1.01433
H          4.08889        0.07487        1.08992
C          4.33876       -1.78866        0.00660
H          5.40733       -1.79721        0.27095
C          3.54189       -2.80026        0.87000
H          4.29292       -2.08863       -1.04970
C          1.46289       -2.56565        2.33072
H          1.46797       -3.04386        0.21731
H          3.94960       -2.80544        1.88980
H          3.67821       -3.82613        0.49704
H          2.01155       -1.93227        3.03069
H          0.42009       -2.24739        2.35736
H          1.51244       -3.59283        2.69945
H          5.21745        0.60808       -1.13072
H          3.72909        0.16234       -1.95272
H          3.75663        1.55186       -0.86866
Fe         0.65335        2.34895        1.11643
C          1.95313        3.44378       -0.04334
C          0.95306        4.27843        0.60126
C         -0.36221        3.84731        0.15679
C         -0.17916        2.71155       -0.72735
C          1.24343        2.45356       -0.83276
H          3.03587        3.54312        0.05991
H          1.15803        5.12900        1.25602
H         -1.31364        4.31646        0.41733
H         -0.95940        2.16359       -1.25947
H          1.68748        1.69961       -1.48585
