87
-129.18286170
P         -1.71465       -0.30330        0.03717
P          1.54187        0.31081       -0.25588
C         -1.41456        1.02573       -1.15586
C          1.20957       -0.69096       -1.70902
C         -0.57127        0.94620       -2.26195
C         -0.37498        2.09853       -3.04754
C         -1.03826        3.26806       -2.71808
C         -1.86789        3.32927       -1.62020
C         -2.04583        2.20536       -0.83688
C          1.96741       -1.80532       -1.97206
C          1.71201       -2.56155       -3.09906
C          0.69360       -2.19415       -3.95451
C         -0.08434       -1.07513       -3.70450
C          0.18579       -0.29739       -2.56085
Cl         1.46340        1.38192        2.83587
Cl        -1.16907       -0.37962        3.30757
H         -2.36700        4.25018       -1.36699
H         -2.67627        2.24607        0.03901
H          2.76283       -2.08047       -1.29976
H          2.30329       -3.43840       -3.30608
H         -0.88450        4.14402       -3.32528
H          0.48735       -2.78648       -4.82977
C         -0.79553       -4.58101       -1.19602
C         -0.30773       -4.09628        0.00948
C         -0.60882       -2.78772        0.36753
C         -1.36283       -1.99163       -0.46421
C         -1.87512       -2.49294       -1.63711
C         -1.58530       -3.79225       -2.00894
H         -0.55793       -5.58951       -1.48891
C          0.53823       -4.95252        0.88382
H         -0.28915       -2.40299        1.32118
H         -2.48553       -1.86190       -2.26245
H         -1.96783       -4.18468       -2.93685
C         -6.14479       -0.12586        1.08281
C         -5.73511       -0.10068       -0.23574
C         -4.38721       -0.15092       -0.54057
C         -3.46078       -0.22687        0.47392
C         -3.86971       -0.25353        1.78542
C         -5.21749       -0.19494        2.11285
H         -7.19387       -0.09298        1.32311
H         -6.46432       -0.04300       -1.02717
H         -4.05199       -0.12531       -1.56558
H         -3.13189       -0.31975        2.56464
C         -5.65475       -0.24789        3.53462
C          4.96870       -1.50776        2.13831
C          5.09482       -0.23985        1.60699
C          4.05753        0.30637        0.87546
C          2.90647       -0.41883        0.67442
C          2.77863       -1.68159        1.20482
C          3.80683       -2.24389        1.95093
H          5.77513       -1.93524        2.70942
H          5.99803        0.32604        1.76636
H          4.13787        1.30044        0.46708
H          1.87419       -2.23945        1.03688
C          3.66434       -3.61248        2.51777
C          2.63761        4.52070       -1.56640
C          3.21228        3.43042       -2.18975
C          2.88763        2.15093       -1.77847
C          1.99497        1.97577       -0.74720
C          1.43150        3.05922       -0.11508
C          1.74582        4.35172       -0.51614
H          2.87824        5.51777       -1.89382
H          3.90573        3.57526       -3.00185
H          3.31377        1.28686       -2.26388
H          0.74102        2.90382        0.69627
C          1.09945        5.52177        0.13734
Pd         0.01622        0.27662        1.52301
C          0.54364        2.09639       -4.22038
C         -1.18914       -0.72661       -4.63980
H          1.23108        1.25055       -4.18937
H         -0.01748        2.04295       -5.15406
H          1.14600        3.00564       -4.24317
H         -0.79497       -0.34026       -5.58054
H         -1.79734       -1.60350       -4.86652
H         -1.84932        0.03005       -4.21420
H          0.17058       -5.97951        0.90033
H          1.56882       -4.96936        0.52672
H          0.54126       -4.58598        1.91124
H         -5.84049       -1.27723        3.84426
H         -4.89349        0.16947        4.19536
H         -6.57301        0.32137        3.68582
H          4.42925       -3.81253        3.26932
H          2.69176       -3.73558        2.99623
H          3.75668       -4.36789        1.73625
H          0.88518        5.31531        1.18697
H          1.74295        6.40170        0.09711
H          0.15818        5.76852       -0.35590
