111
-148.55645789
P         -2.53146       -1.92852       -1.19507
P          0.18399       -0.47692       -0.44413
C         -1.30370       -1.58773       -2.48672
C         -0.10238       -1.00501       -2.14412
C         -3.42917       -3.51919       -1.49368
C         -2.93384       -4.61772       -0.57861
C         -1.56484       -1.89893       -3.80583
H         -2.51326       -2.33500       -4.07326
C         -0.61500       -1.63335       -4.77729
H         -0.81819       -1.87631       -5.80749
C          0.59095       -1.05530       -4.42951
H          1.32897       -0.84644       -5.18639
C          0.84617       -0.73522       -3.10822
H          1.77444       -0.26646       -2.82090
Pd        -1.39933       -1.62643        0.79350
Cl        -3.24179       -2.39246        1.82004
Cl        -0.21339       -1.16509        2.64291
C         -4.90206       -3.12072       -1.28554
C         -3.95271       -0.74323       -1.17723
H         -1.86654       -4.80251       -0.72198
H         -3.08109       -4.34726        0.46780
H         -3.46761       -5.55460       -0.75434
H         -5.17277       -3.30922       -0.23743
H         -5.56320       -3.76698       -1.88284
H         -4.07513       -0.43265       -0.13085
C         -5.14023       -1.61975       -1.61839
C         -3.68803        0.45307       -2.06548
H         -3.25240       -3.78542       -2.54341
H         -5.28194       -1.50349       -2.70169
H         -6.07310       -1.25926       -1.15888
H         -3.49651        0.13798       -3.09289
H         -4.53989        1.13683       -2.07992
H         -2.81374        1.01143       -1.72554
C         -1.18267        3.83947        0.05813
C         -0.86539        3.34992       -1.23493
C         -0.43933        2.03792       -1.35381
C         -0.38786        1.21097       -0.26308
C         -0.78153        1.65264        0.97121
C         -1.23002        2.94750        1.15982
O         -1.41302        5.22689        0.25568
C         -0.94076        4.22762       -2.49367
H         -0.13179        1.64346       -2.30607
H         -0.71927        0.96329        1.79486
C         -1.73535        3.36141        2.55026
C          4.52493       -0.69612        0.90488
C          3.98816        0.52649        0.42121
C          2.65917        0.54716        0.03369
C          1.89968       -0.59365        0.04016
C          2.44750       -1.80104        0.38419
C          3.77127       -1.89465        0.78361
O          5.77312       -0.70488        1.57881
C          4.78939        1.83337        0.29592
H          2.19356        1.47106       -0.26589
H          1.82060       -2.67625        0.35285
C          4.33892       -3.29569        1.06762
C          0.40871        4.93215       -2.70036
C         -1.24510        3.36946       -3.74313
C         -2.07090        5.26637       -2.37788
C         -2.81671        4.45204        2.44748
C         -2.38065        2.15541        3.27233
C         -0.55219        3.86302        3.39171
C         -0.24372        5.96461        0.58901
H          1.21083        4.20282       -2.81213
H          0.39137        5.55503       -3.59432
H          0.65542        5.56733       -1.85299
H         -0.41656        2.70761       -3.99086
H         -2.13629        2.76181       -3.58945
H         -1.41891        4.00218       -4.61321
H         -3.02475        4.77563       -2.18709
H         -1.88643        5.96440       -1.56506
H         -2.16523        5.84677       -3.29535
H         -3.21812        4.69971        3.42982
H         -2.41898        5.36646        2.01475
H         -3.64091        4.11646        1.81892
H         -2.85910        2.46982        4.19945
H         -3.13992        1.68884        2.64517
H         -1.64305        1.39875        3.53501
H          0.20430        3.08521        3.49384
H         -0.07832        4.72644        2.93067
H         -0.87786        4.15071        4.39097
H          0.62705        5.30804        0.61272
H         -0.08577        6.75113       -0.14878
H         -0.37174        6.43364        1.56439
C          5.64489       -0.48098        2.97312
C          4.52638        2.46558       -1.08932
C          4.33687        2.81598        1.38918
C          6.30663        1.60330        0.40428
C          3.93252       -4.25549       -0.07259
C          5.87615       -3.30399        1.13306
C          3.76449       -3.81890        2.39463
H          5.14181        3.35313       -1.23421
H          4.76222        1.75946       -1.88502
H          3.48752        2.77003       -1.20591
H          4.87399        3.76081        1.31021
H          3.27122        3.02805        1.30580
H          4.51699        2.40966        2.38255
H          6.63493        0.85859       -0.31994
H          6.85796        2.52482        0.21876
H          6.58246        1.24919        1.39463
H          4.25715       -3.86568       -1.03696
H          4.38810       -5.23591        0.06419
H          2.85466       -4.40259       -0.11384
H          6.30167       -2.87257        0.22771
H          6.23817       -2.72591        1.97988
H          6.25940       -4.31857        1.23945
H          4.12595       -4.82489        2.60605
H          2.67599       -3.85290        2.36125
H          4.04979       -3.17836        3.22676
H          5.19190        0.49206        3.15553
H          5.01479       -1.24898        3.41851
H          6.63206       -0.51152        3.43473
