45
-71.81564132
C          0.61083        1.70454        2.94968
P         -0.10519        0.75314        1.56735
P         -0.12236        0.92068       -1.58871
C          0.57206        1.91980       -2.94848
Cl         2.94500       -0.15051        1.60007
H         -0.14467        1.88808        3.70814
H          0.96635        2.85205       -2.55414
Cl         2.86679       -0.40965       -1.67721
C         -1.37370        1.72539        0.72745
C         -1.37528        1.80753       -0.64755
C         -2.35616        2.52441       -1.30112
C         -3.33421        3.17420       -0.56876
C         -3.32967        3.09812        0.81059
C         -2.34853        2.37059        1.46105
H         -2.35569        2.56485       -2.37846
H         -4.10115        3.73644       -1.07559
H         -4.09217        3.60251        1.38101
H         -2.33934        2.29852        2.53671
Pd         1.49701        0.30505       -0.05613
H         -0.19687        2.14343       -3.68234
H          0.98908        2.65581        2.58644
H          1.37737        1.37444       -3.43246
C         -1.81798       -3.11664       -2.80825
C         -1.81027       -2.71758       -1.48647
C         -1.29163       -1.48171       -1.14787
C         -0.78546       -0.65675       -2.12445
C         -0.78862       -1.04965       -3.44321
C         -1.30808       -2.28505       -3.78665
H         -2.22006       -4.07989       -3.07673
H         -2.20155       -3.36554       -0.71952
H         -1.26518       -1.15737       -0.12205
H         -0.38330       -0.39472       -4.19694
H         -1.31198       -2.59908       -4.81753
C         -1.66148       -3.30712        2.88834
C         -2.55662       -2.28954        2.62112
C         -2.09125       -1.04500        2.23726
C         -0.73675       -0.82929        2.12391
C          0.15818       -1.83973        2.38917
C         -0.30318       -3.08474        2.77413
H         -2.02392       -4.27748        3.18609
H         -3.61631       -2.46496        2.70806
H         -2.77774       -0.24498        2.01299
H          1.21323       -1.64544        2.27827
H          0.39570       -3.87884        2.97937
H          1.42898        1.14625        3.39564
