105
-153.07178763
Cl        -0.89119        2.05794       -2.88067
Pd         0.09475        1.52213       -0.93361
P          1.34457        0.73871        0.86798
N          0.61559       -0.49276        1.88466
C          0.02752       -1.72839        1.65767
C         -0.09836       -2.32582        0.37955
C         -0.81957       -3.53001        0.24421
C         -0.94764       -4.14370       -1.13079
C         -1.47521       -5.58716       -1.14138
C         -2.63681       -5.75682       -0.15792
C         -2.19061       -5.41326        1.27118
C         -1.38967       -4.13932        1.36376
C         -1.20949       -3.56294        2.61392
C         -0.51714       -2.38901        2.75865
H         -0.41597       -1.94127        3.73205
H         -1.64092       -4.04254        3.47626
H         -3.06288       -5.33205        1.93248
H         -3.46017       -5.09419       -0.45251
H         -1.77792       -5.88475       -2.15525
H         -1.60685       -3.50583       -1.73122
C          0.66296       -1.83860       -0.79626
C         -0.01685       -1.22480       -1.88369
C          0.68873       -1.00455       -3.07016
C          2.00097       -1.38158       -3.19275
C          2.66725       -2.01913       -2.15338
C          4.07579       -2.50060       -2.38148
C          4.42900       -3.71531       -1.51211
C          4.11290       -3.42652       -0.04164
C          2.63206       -3.05860        0.16319
C          1.99971       -2.25212       -0.94975
H          2.04647       -3.97698        0.29051
H          4.74567       -2.60061        0.30121
H          5.48375       -3.99771       -1.63987
H          4.76985       -1.67924       -2.17249
H          2.52651       -1.19931       -4.11475
H          0.18876       -0.51266       -3.88587
N         -1.35387       -0.81585       -1.79931
P         -1.83588        0.20244       -0.43826
C         -2.79613       -0.72916        0.75486
C         -3.53779       -1.78995        0.29404
C         -4.33797       -2.50156        1.16974
C         -4.39679       -2.15119        2.51169
C         -3.66403       -1.05592        2.94996
C         -2.86831       -0.34281        2.07185
H         -2.30090        0.50763        2.41034
H         -3.71855       -0.76654        3.98551
C         -5.25701       -2.91407        3.45748
H         -4.91891       -3.33582        0.81582
H         -3.48157       -2.05767       -0.74916
C         -2.95477        1.50588       -0.96805
C         -2.89932        2.73921       -0.36252
C         -3.76632        3.73907       -0.76329
C         -4.69385        3.50844       -1.77022
C         -4.74809        2.24909       -2.35259
C         -3.87917        1.25017       -1.95177
H         -3.92203        0.27061       -2.40016
H         -5.47455        2.05548       -3.12318
C         -5.63997        4.58009       -2.18715
H         -3.72580        4.70810       -0.29589
H         -2.17617        2.91832        0.41717
H         -1.71059       -0.34456       -2.62069
H          0.79661       -0.23155        2.84638
C          1.29433        2.24718        1.84324
C          2.41775        3.01336        2.04292
C          2.32832        4.18595        2.77007
C          1.11387        4.59663        3.30377
C         -0.01186        3.81508        3.08077
C          0.08102        2.64205        2.35391
H         -0.78901        2.03237        2.17410
H         -0.96194        4.13255        3.47539
C          1.01203        5.87556        4.05969
H          3.20306        4.79508        2.92146
H          3.35716        2.69966        1.61813
C          3.07727        0.35733        0.60893
C          3.71950        0.68951       -0.55979
C          5.07180        0.43986       -0.69826
C          5.79235       -0.14136        0.33587
C          5.13386       -0.44303        1.52039
C          3.77873       -0.19659        1.65371
H          3.26364       -0.42796        2.57263
H          5.68720       -0.87552        2.33638
C          7.25104       -0.40074        0.18937
H          5.57898        0.70508       -1.61020
H          3.16679        1.16813       -1.35040
Cl         1.76530        3.00239       -1.18523
H         -1.58883       -6.23440        1.67850
H         -0.66423       -6.27243       -0.86437
H         -3.04579       -6.77595       -0.20754
H          0.02897       -4.10116       -1.62910
H          4.38991       -4.28329        0.58853
H          2.50818       -2.50748        1.10322
H          4.21142       -2.73753       -3.44446
H          3.84638       -4.58323       -1.84583
H         -5.38568       -3.94614        3.12813
H         -4.81717       -2.93858        4.45554
H         -6.24553       -2.45950        3.53536
H         -5.17395        5.56396       -2.11732
H         -5.96351        4.44058       -3.21956
H         -6.52767        4.58164       -1.55315
H          0.80965        6.70842        3.38494
H          0.20784        5.83546        4.79572
H          1.93843        6.09213        4.59351
H          7.83141        0.47751        0.47515
H          7.56834       -1.23383        0.81822
H          7.50362       -0.65092       -0.84206
