58
-89.86582870
P          1.54468        0.14454        0.68298
C          1.51601        1.93989        0.59880
C          1.51116        2.53307       -0.64250
C          1.49208        3.91087       -0.75130
C          1.48698        4.68751        0.39022
C          1.50786        4.08983        1.63515
C          1.52553        2.71058        1.73947
H          1.54755        2.23510        2.70636
H          1.53483        1.90745       -1.51990
C          3.20142       -0.46434        0.33678
C          4.26787        0.39359        0.48359
C          5.55197       -0.05269        0.22750
C          5.75831       -1.35757       -0.17408
C          4.68573       -2.21494       -0.32002
C          3.40313       -1.76584       -0.06211
H          2.55793       -2.42254       -0.18936
H          4.09012        1.41082        0.79412
C          1.08621       -0.48607        2.35170
C          0.47466       -1.87717        2.25530
C         -1.02969       -1.87935        2.02899
P         -1.63967       -0.88755        0.59553
C         -1.75406        0.87325        0.95456
C         -1.78622        1.35631        2.24242
C         -1.87263        2.71837        2.46423
C         -1.93828        3.58906        1.39495
C         -1.92607        3.10031        0.10438
C         -1.83854        1.73742       -0.11334
H         -1.83455        1.33958       -1.11626
H         -1.76110        0.67280        3.07453
C         -3.32613       -1.44268        0.28784
C         -4.23811       -1.31585        1.31202
C         -5.54442       -1.73536        1.12998
C         -5.93036       -2.27852       -0.07932
C         -5.01545       -2.39868       -1.10604
C         -3.71319       -1.97723       -0.91864
H         -2.99573       -2.04476       -1.71756
H         -3.92586       -0.88365        2.24978
Pd         0.10788       -0.70553       -0.95763
Cl         1.84212       -0.24077       -2.32336
Cl        -1.20976       -1.40893       -2.61787
H         -1.39509       -2.89702        1.86949
H         -1.55055       -1.50443        2.91135
H          0.97004       -2.42760        1.44407
H          0.70179       -2.45093        3.16761
H          2.00982       -0.48500        2.93641
H          0.40450        0.21273        2.83520
H          1.48302        4.37512       -1.72366
H          1.50731        4.69679        2.52558
H          6.38807        0.61796        0.33898
H          4.84598       -3.23160       -0.63940
H         -1.88943        3.09965        3.47205
H         -1.97910        3.77763       -0.73200
H         -6.25851       -1.63694        1.93102
H         -5.31603       -2.81567       -2.05323
H          1.46994        5.76215        0.30955
H          6.75767       -1.70656       -0.37706
H         -1.99981        4.65112        1.56781
H         -6.94733       -2.60546       -0.22308
