111
-148.55714645
P         -2.22052       -2.40685       -0.41185
P         -0.05640       -0.09003       -0.58281
C         -1.53825       -1.92858       -2.01787
C         -0.61712       -0.90692       -2.08821
C         -2.16404       -4.23847       -0.16836
C         -1.11753       -4.60610        0.86139
C         -1.93873       -2.57760       -3.16781
H         -2.66015       -3.37612       -3.10392
C         -1.41259       -2.19722       -4.39045
H         -1.72459       -2.70224       -5.29001
C         -0.48891       -1.17157       -4.45881
H         -0.07836       -0.87647       -5.41039
C         -0.08841       -0.52481       -3.30297
H          0.63719        0.27288       -3.33677
Pd        -1.14500       -1.13634        1.17224
Cl        -2.58518       -1.89088        2.71615
Cl         0.01997        0.16893        2.57945
C         -3.60977       -4.58159        0.23865
C         -4.04374       -2.11523       -0.28771
H         -0.12287       -4.27499        0.55248
H         -1.33702       -4.13207        1.82018
H         -1.08066       -5.68553        1.02647
H         -3.67047       -4.60357        1.33546
H         -3.87034       -5.59857       -0.09168
H         -4.20824       -1.65247        0.69454
C         -4.62555       -3.54056       -0.31198
C         -4.53914       -1.20959       -1.39518
H         -1.92284       -4.67572       -1.14597
H         -4.88998       -3.79780       -1.34685
H         -5.57033       -3.57749        0.25141
H         -5.61017       -1.01446       -1.30352
H         -4.01620       -0.25066       -1.38603
H         -4.36906       -1.66252       -2.37324
C         -1.21808        4.30911       -0.43894
C          0.01929        3.93988       -1.02676
C          0.36372        2.59814       -1.04729
C         -0.49562        1.64337       -0.56959
C         -1.73949        1.98513       -0.10615
C         -2.14679        3.30779       -0.05710
O         -1.51075        5.67997       -0.20873
C          0.98913        4.97758       -1.61452
H          1.31534        2.27873       -1.43486
H         -2.39141        1.19825        0.23241
C         -3.56416        3.62934        0.44257
C          4.25927       -1.17461        0.37559
C          3.77796        0.11434        0.72101
C          2.46247        0.42663        0.42146
C          1.66531       -0.45419       -0.25982
C          2.15161       -1.66667       -0.67532
C          3.45847       -2.04191       -0.41071
O          5.52525       -1.61158        0.84866
C          4.64099        1.15454        1.45174
H          2.03019        1.35659        0.74658
H          1.48398       -2.32726       -1.20187
C          3.96976       -3.38863       -0.94586
C          0.21856        6.14065       -2.26554
C          1.90794        5.50876       -0.50424
C          1.86932        4.34503       -2.71610
C         -4.54263        2.48811        0.08116
C         -3.53762        3.78317        1.97099
C         -4.11110        4.90940       -0.21468
C         -1.10878        6.15334        1.07064
H          0.90077        6.84801       -2.73638
H         -0.46475        5.76898       -3.02837
H         -0.36725        6.68790       -1.53088
H          1.33734        5.99721        0.28125
H          2.47028        4.69527       -0.04813
H          2.62099        6.23156       -0.89998
H          1.25472        3.84986       -3.46748
H          2.46456        5.10626       -3.21993
H          2.56579        3.61560       -2.30494
H         -4.32418        1.57707        0.63629
H         -5.56832        2.76800        0.32026
H         -4.49756        2.26287       -0.98396
H         -4.53156        4.00418        2.35899
H         -3.18674        2.86584        2.44338
H         -2.87079        4.58603        2.27573
H         -5.13870        5.09997        0.09388
H         -3.52015        5.78028        0.05649
H         -4.09398        4.82000       -1.30036
H         -0.45806        7.01930        0.94974
H         -1.98420        6.46486        1.63987
H         -0.57931        5.37136        1.61651
C          5.47742       -2.26911        2.10889
C          6.12296        1.02690        1.05537
C          4.19832        2.58759        1.07844
C          4.47744        0.97175        2.96831
C          5.47609       -3.32618       -1.25727
C          3.68664       -4.48806        0.08916
C          3.25258       -3.75863       -2.26467
H          6.72291        1.80520        1.52632
H          6.53424        0.06724        1.35775
H          6.24004        1.11490       -0.02423
H          4.88691        3.32532        1.48979
H          4.17692        2.71629       -0.00345
H          3.21018        2.81870        1.47328
H          5.06433        1.70829        3.51640
H          3.43337        1.08680        3.25876
H          4.80003       -0.01748        3.28360
H          6.06045       -3.14685       -0.35833
H          5.82479       -4.26091       -1.69564
H          5.68940       -2.52144       -1.96002
H          4.19011       -4.28301        1.03072
H          2.61861       -4.55882        0.29362
H          4.02672       -5.45912       -0.26975
H          3.32260       -2.94455       -2.98567
H          2.19944       -3.98369       -2.10251
H          3.70237       -4.64353       -2.71438
H          6.09402       -1.72928        2.82733
H          4.45068       -2.31701        2.47397
H          5.87629       -3.27854        2.01015
