105
-153.06937295
Cl        -0.99523        2.12376       -2.79723
Pd         0.03651        1.53393       -0.87549
P          1.41874        0.75185        0.83039
N          0.60806       -0.43921        1.83565
C          0.02820       -1.68170        1.61937
C         -0.10362       -2.28999        0.34667
C         -0.81215       -3.50288        0.22513
C         -0.94232       -4.12786       -1.14437
C         -1.44557       -5.57999       -1.13922
C         -2.59766       -5.76082       -0.14649
C         -2.14907       -5.39687        1.27693
C         -1.36538       -4.11116        1.35352
C         -1.18352       -3.52222        2.59760
C         -0.50413       -2.33899        2.72838
H         -0.40095       -1.88334        3.69789
H         -1.60265       -4.00030        3.46681
H         -3.01908       -5.32130        1.94191
H         -3.43441       -5.11557       -0.44184
H         -1.74996       -5.89120       -2.14850
H         -1.61722       -3.50524       -1.74337
C          0.64053       -1.79989       -0.83725
C         -0.04973       -1.17086       -1.90929
C          0.65676       -0.90429       -3.08577
C          1.97889       -1.24538       -3.21020
C          2.65621       -1.90252       -2.18981
C          4.08389       -2.32717       -2.44469
C          4.76667       -3.06356       -1.27778
C          3.77097       -3.91721       -0.48727
C          2.63195       -3.04508        0.05863
C          1.97939       -2.19809       -1.00534
H          1.87408       -3.67593        0.53921
H          4.27587       -4.45834        0.32553
H          5.22183       -2.33279       -0.60008
H          4.66543       -1.43932       -2.72319
H          2.50576       -1.02131       -4.12227
H          0.15128       -0.39798       -3.88917
N         -1.39523       -0.78938       -1.81936
P         -1.89822        0.20296       -0.44650
C         -2.83411       -0.74840        0.74919
C         -3.56024       -1.82398        0.29834
C         -4.34222       -2.54448        1.18317
C         -4.40268       -2.18422        2.52294
C         -3.68105       -1.07826        2.95173
C         -2.90381       -0.35599        2.06446
H         -2.34980        0.50795        2.39239
H         -3.72976       -0.78858        3.98752
C         -5.22193       -2.96498        3.49056
H         -4.90655       -3.39338        0.83745
H         -3.50608       -2.09598       -0.74381
C         -3.03651        1.49885       -0.94780
C         -3.00102        2.71038       -0.29826
C         -3.88020        3.71168       -0.66856
C         -4.79887        3.50349       -1.68868
C         -4.83252        2.26473       -2.31516
C         -3.95210        1.26420       -1.94484
H         -3.97867        0.30043       -2.42723
H         -5.55230        2.08875       -3.09621
C         -5.75899        4.57429       -2.07464
H         -3.85631        4.66375       -0.16648
H         -2.28513        2.86943        0.49320
H         -1.75944       -0.31174       -2.63377
H          0.78581       -0.17599        2.79725
C          1.37288        2.28604        1.76450
C          2.44420        3.14718        1.76767
C          2.36224        4.34125        2.46013
C          1.20290        4.68521        3.14268
C          0.13236        3.80093        3.12900
C          0.21749        2.60641        2.43692
H         -0.61414        1.92137        2.41289
H         -0.76859        4.05376        3.66145
C          1.12457        5.96273        3.90395
H          3.19970        5.01777        2.47061
H          3.33636        2.88661        1.22190
C          3.15598        0.31562        0.70303
C          3.90796        0.64907       -0.39773
C          5.25958        0.36462       -0.42516
C          5.87167       -0.25702        0.65448
C          5.10288       -0.56891        1.76738
C          3.74999       -0.27876        1.79157
H          3.15226       -0.51173        2.65839
H          5.57057       -1.03672        2.61675
C          7.33146       -0.54985        0.63446
H          5.85034        0.63150       -1.28475
H          3.43984        1.16085       -1.22030
Cl         1.87493        2.61135       -1.60443
H         -1.53392       -6.20559        1.68914
H         -0.62128       -6.24914       -0.86202
H         -2.98896       -6.78737       -0.18443
H          0.02909       -4.07284       -1.65158
H          3.35311       -4.69066       -1.14387
H          3.00960       -2.39184        0.85083
H          4.09305       -2.96909       -3.33386
H          5.60143       -3.67906       -1.64153
H         -5.69935       -3.81984        3.00968
H         -4.60286       -3.34452        4.30478
H         -6.00700       -2.34425        3.92459
H         -5.33256        5.56428       -1.90701
H         -6.02353        4.50334       -3.13058
H         -6.67769        4.49985       -1.49120
H          0.09156        6.29748        4.00831
H          1.54250        5.84375        4.90452
H          1.67911        6.75501        3.39909
H          7.89848        0.27854        1.06119
H          7.56042       -1.44740        1.21081
H          7.68691       -0.71176       -0.38420
