75
-122.81784905
P          1.83200       -0.55159        0.01522
C          1.67370       -1.57332       -1.45486
C          1.75925       -1.01768       -2.71072
C          1.72618       -1.83283       -3.82691
C          1.60938       -3.20043       -3.67595
C          1.52193       -3.75364       -2.41373
C          1.55698       -2.93543       -1.29876
H          1.50733       -3.35259       -0.30513
H          1.42739       -4.82056       -2.29610
H          1.57934       -3.83679       -4.54525
H          1.78748       -1.40020       -4.81189
H          1.84650        0.05154       -2.81195
C          3.15921       -1.28535        0.98646
C          4.42251       -1.32613        0.44141
C          5.45967       -1.90565        1.14988
C          5.22095       -2.44924        2.39634
C          3.94873       -2.42032        2.93202
C          2.91406       -1.84081        2.22103
H          1.91646       -1.81440        2.62847
H          3.76132       -2.84707        3.90364
H          6.02813       -2.89968        2.95063
H          6.45064       -1.93483        0.72752
H          4.58904       -0.91442       -0.54183
C          2.22461        1.14793       -0.43618
C          3.38488        1.79636       -0.08304
C          3.55899        3.14185       -0.37644
C          2.51996        3.83163       -1.00039
C          1.34501        3.19895       -1.34087
C          1.19750        1.82890       -1.07179
O          0.01170        1.14785       -1.39096
C         -1.17914        1.81843       -1.06776
C         -1.33618        3.18910       -1.32754
C         -2.51151        3.81316       -0.97293
C         -3.53749        3.11566       -0.33624
C         -3.36396        1.76341       -0.07565
C         -2.20313        1.12346       -0.44244
P         -1.80680       -0.58682       -0.03543
C         -3.11537       -1.33054        0.95302
C         -2.84209       -1.91748        2.16704
C         -3.86220       -2.50622        2.89137
C         -5.14829       -2.51326        2.38922
C         -5.41539       -1.93901        1.16248
C         -4.39277       -1.35034        0.44061
H         -4.58184       -0.91686       -0.52910
H         -6.41720       -1.95166        0.76565
H         -5.94403       -2.97108        2.95391
H         -3.65252       -2.95764        3.84716
H         -1.83366       -1.91092        2.54772
C         -1.69918       -1.56800       -1.54011
C         -1.54945       -0.96618       -2.76841
C         -1.55964       -1.73322       -3.91837
C         -1.71689       -3.10205       -3.82993
C         -1.85992       -3.70420       -2.59563
C         -1.85320       -2.93254       -1.44745
H         -1.98199       -3.38643       -0.47747
H         -1.97944       -4.77282       -2.52575
H         -1.72041       -3.70215       -4.72515
H         -1.43761       -1.26324       -4.88034
H         -1.41159        0.10069       -2.82124
Pd        -0.01717       -0.01256        1.41751
Cl        -1.63965        0.87877        2.69548
Cl         1.64848        0.90811        2.63064
H         -4.13128        1.21787        0.44396
C         -4.80178        3.80151        0.04225
H         -5.54540        3.70823       -0.75019
H         -4.63423        4.86375        0.22462
H         -5.22286        3.37237        0.95242
H         -2.62961        4.86195       -1.18065
S         -0.00241        4.07259       -2.09580
H          2.62654        4.88199       -1.20654
C          4.80171        3.84873        0.03230
H          4.15024        1.26344        0.45262
H          4.71392        4.22439        1.05248
H          5.66392        3.18177       -0.00800
H          5.00691        4.69620       -0.62298
