75
-122.81826590
P          1.81481       -0.57621       -0.03139
C          1.68921       -1.56282       -1.52754
C          1.69105       -2.93405       -1.41217
C          1.67885       -3.71940       -2.55104
C          1.66965       -3.12418       -3.79700
C          1.66648       -1.74780       -3.90740
C          1.67628       -0.96603       -2.76721
H          1.66557        0.10905       -2.83710
H          1.65133       -1.28264       -4.87926
H          1.65770       -3.73498       -4.68488
H          1.67773       -4.79348       -2.46465
H          1.71544       -3.38319       -0.43165
C          3.13564       -1.30870        0.94784
C          4.40242       -1.34256        0.41045
C          5.43853       -1.91678        1.12479
C          5.19542       -2.46187        2.36971
C          3.92002       -2.43936        2.89804
C          2.88650       -1.86491        2.18139
H          1.88684       -1.84511        2.58383
H          3.72920       -2.86735        3.86845
H          6.00162       -2.90843        2.92851
H          6.43216       -1.94018        0.70836
H          4.57286       -0.92807       -0.57103
C          2.20486        1.13496       -0.43371
C          3.35773        1.78078       -0.05256
C          3.52974        3.13263       -0.31699
C          2.49702        3.83023       -0.94287
C          1.32921        3.19991       -1.31110
C          1.18274        1.82512       -1.06655
O          0.00158        1.14647       -1.40649
C         -1.19103        1.81219       -1.08130
C         -1.35135        3.18413       -1.33300
C         -2.53325        3.80052       -0.98669
C         -3.56681        3.09200       -0.37466
C         -3.38000        1.74435       -0.09907
C         -2.21197        1.11270       -0.45700
P         -1.80633       -0.58705       -0.02300
C         -3.12490       -1.29983        0.97480
C         -4.37636       -1.40432        0.41112
C         -5.41449       -1.96114        1.13629
C         -5.18895       -2.41654        2.41992
C         -3.92927       -2.32065        2.97689
C         -2.89374       -1.76380        2.24942
H         -1.90725       -1.68543        2.67591
H         -3.75238       -2.67750        3.97823
H         -5.99665       -2.84970        2.98708
H         -6.39590       -2.04063        0.69839
H         -4.53316       -1.05684       -0.59833
C         -1.68098       -1.59818       -1.50312
C         -1.62827       -1.01777       -2.74948
C         -1.61976       -1.81375       -3.87978
C         -1.66269       -3.18801       -3.75280
C         -1.71021       -3.76703       -2.50010
C         -1.72159       -2.96737       -1.37123
H         -1.77572       -3.40341       -0.38603
H         -1.74044       -4.83957       -2.40078
H         -1.65171       -3.81001       -4.63288
H         -1.57334       -1.36145       -4.85672
H         -1.58353        0.05554       -2.83187
Pd         0.00704       -0.06018        1.40797
Cl        -1.53779        1.03929        2.64274
Cl         1.55199        0.88764        2.75748
H         -4.14199        1.19577        0.42559
C         -4.81671        3.78138        0.04192
H         -4.73170        4.14848        1.06547
H         -5.67167        3.10551       -0.00356
H         -5.03184        4.63263       -0.60521
H         -2.64967        4.85254       -1.17846
S         -0.01026        4.07997       -2.07350
H          2.60292        4.88440       -1.12887
C          4.76360        3.83671        0.12231
H          4.11917        1.23991        0.48067
H          4.98066        4.69017       -0.52127
H          4.65548        4.20319        1.14389
H          5.62715        3.17094        0.09298
