75
-122.81822383
P          1.82149       -0.56059       -0.00636
C          1.68480       -1.54809       -1.50355
C          1.69149       -0.95476       -2.74504
C          1.67715       -1.73932       -3.88319
C          1.65705       -3.11524       -3.76923
C          1.64730       -3.70708       -2.52169
C          1.66368       -2.91892       -1.38485
H          1.67393       -3.36583       -0.40309
H          1.62786       -4.78075       -2.43248
H          1.64172       -3.72822       -4.65555
H          1.67728       -1.27666       -4.85638
H          1.70072        0.12007       -2.81811
C          3.14733       -1.31039        0.95516
C          4.42010       -1.30756        0.43110
C          5.45538       -1.89737        1.13374
C          5.20543       -2.49561        2.35264
C          3.92385       -2.51140        2.86607
C          2.89112       -1.92120        2.16105
H          1.88622       -1.93022        2.55097
H          3.72761       -2.98123        3.81582
H          6.01116       -2.95394        2.90256
H          6.45380       -1.89173        0.72830
H          4.59587       -0.85422       -0.53198
C          2.20994        1.14990       -0.41722
C          3.36020        1.80237       -0.03971
C          3.52737        3.15306       -0.31241
C          2.49255        3.84276       -0.94353
C          1.32735        3.20578       -1.30867
C          1.18557        1.83215       -1.05514
O          0.00849        1.14564       -1.39333
C         -1.18910        1.80820       -1.08136
C         -1.35426        3.17753       -1.34369
C         -2.54265        3.78987       -1.01270
C         -3.57851        3.07979       -0.40647
C         -3.38718        1.73505       -0.12029
C         -2.21228        1.10740       -0.46231
P         -1.80473       -0.58968       -0.01854
C         -3.12852       -1.29937        0.97568
C         -2.90445       -1.75864        2.25329
C         -3.94385       -2.31309        2.97708
C         -5.20044       -2.41136        2.41362
C         -5.41895       -1.96087        1.12708
C         -4.37692       -1.40653        0.40560
H         -4.52832       -1.06332       -0.60611
H         -6.39788       -2.04237        0.68401
H         -6.01118       -2.84245        2.97802
H         -3.77244       -2.66602        3.98077
H         -1.92043       -1.67888        2.68511
C         -1.68030       -1.60413       -1.49685
C         -1.61601       -1.02582       -2.74366
C         -1.61176       -1.82308       -3.87308
C         -1.67051       -3.19663       -3.74485
C         -1.72955       -3.77367       -2.49171
C         -1.73677       -2.97266       -1.36376
H         -1.80043       -3.40702       -0.37839
H         -1.77207       -4.84569       -2.39132
H         -1.66279       -3.81970       -4.62421
H         -1.55645       -1.37235       -4.85028
H         -1.55914        0.04681       -2.82705
Pd        -0.01084       -0.05260        1.43586
Cl        -1.56699        1.06347        2.62116
Cl         1.66791        0.84093        2.65488
H         -4.15190        1.18566        0.39949
C         -4.83709        3.76454       -0.00877
H         -4.76584        4.13941        1.01300
H         -5.68741        3.08317       -0.05901
H         -5.05006        4.60982       -0.66441
H         -2.66302        4.83984       -1.21312
S         -0.01300        4.07677       -2.07956
H          2.59470        4.89608       -1.13627
C          4.75830        3.86401        0.12404
H          4.12266        1.26849        0.49898
H          5.62630        3.20438        0.08744
H          4.96627        4.72194       -0.51660
H          4.65262        4.22498        1.14784
