45
-71.81682206
C          0.70637        1.78264        2.99271
P         -0.04910        0.84808        1.61940
P         -0.17086        0.80006       -1.53373
C          0.52373        1.78687       -2.90164
Cl         3.00355       -0.24795        1.56622
H         -0.03211        1.98240        3.76379
H          0.92966        2.71799       -2.51663
Cl         2.93980       -0.28507       -1.63617
C         -1.32474        1.79297        0.76777
C         -1.38342        1.76337       -0.60807
C         -2.37447        2.45445       -1.27498
C         -3.31220        3.17496       -0.55627
C         -3.25707        3.19819        0.82392
C         -2.26250        2.50275        1.48903
H         -2.41117        2.42400       -2.35205
H         -4.08742        3.71530       -1.07422
H         -3.99029        3.75509        1.38378
H         -2.21585        2.50234        2.56608
Pd         1.49210        0.27221       -0.01115
H         -0.24932        2.01036       -3.63114
H          1.09586        2.72679        2.62276
H          1.31860        1.22994       -3.38960
C         -1.85196       -3.17544       -2.95450
C         -2.71673       -2.14774       -2.63178
C         -2.21378       -0.92830       -2.21607
C         -0.85243       -0.74767       -2.12669
C          0.01257       -1.76847       -2.44652
C         -0.48660       -2.98833       -2.86356
H         -2.24367       -4.12620       -3.27737
H         -3.78192       -2.29579       -2.70052
H         -2.87603       -0.12106       -1.94893
H          1.07430       -1.60323       -2.35112
H          0.18860       -3.79059       -3.11184
C         -1.77603       -3.20383        2.74363
C         -1.83326       -2.74143        1.44387
C         -1.30262       -1.50307        1.13417
C         -0.72014       -0.73852        2.11746
C         -0.65814       -1.19488        3.41417
C         -1.18935       -2.43297        3.72872
H         -2.18743       -4.16919        2.98948
H         -2.28445       -3.34214        0.67139
H         -1.32537       -1.13053        0.12475
H         -0.19345       -0.58701        4.17305
H         -1.14269       -2.79647        4.74215
H          1.52334        1.21040        3.42306
