72
-108.40300917
Cl         1.68898       -0.83473        2.71587
Cl        -0.96537        0.87573        2.78185
P         -1.12432        1.13750       -0.29721
P          2.25717       -0.09808       -0.34137
C          3.22183        1.51779       -0.09336
C          3.54927        1.68390        1.39219
C          4.50305        1.49431       -0.91909
C          3.35789       -1.62730       -0.07035
C          4.20535       -1.90207       -1.31928
C          1.47396       -0.41403       -2.02924
C          1.54839        0.74383       -3.00281
C         -1.10947       -0.19675       -1.53122
C          0.05715       -0.96000       -1.97212
C         -0.42569       -2.04297       -2.83248
C         -1.87052       -1.95682       -2.90979
C         -2.28672       -0.83694       -2.08683
C          2.35061        2.69356       -0.51298
H          4.03013        2.64675        1.57247
H          2.64800        1.64927        2.00425
H          5.01457        2.45640       -0.85998
H          4.29884        1.29371       -1.96980
C          4.28430       -1.47312        1.13184
H          3.61352       -2.31499       -2.13525
H          4.98106       -2.63725       -1.09867
H          2.09037       -1.22200       -2.43417
H          2.55817        1.14058       -3.10120
H          0.88346        1.54629       -2.69138
H          1.21790        0.43929       -3.99803
H          0.20548       -2.73076       -3.39869
H         -2.52689       -2.61101       -3.48811
Pd         0.48480        0.25785        1.17371
H         -3.31340       -0.51142       -1.90546
C          2.40508       -2.79028        0.16373
H          4.69891       -1.00207       -1.68096
H          3.73578       -1.18029        2.02464
H          4.78070       -2.41898        1.35355
H          5.06830       -0.74212        0.94277
H          1.88013       -2.67101        1.11027
H          1.66787       -2.85942       -0.63742
H          2.94706       -3.73717        0.20570
H          4.22901        0.91753        1.75447
H          5.19840        0.73876       -0.55734
H          2.13400        2.68646       -1.57802
H          1.41057        2.68405        0.03565
H          2.84721        3.64061       -0.29501
C         -2.80546        1.20389        0.37734
C         -3.27237        2.16837        1.23552
C         -4.60037        1.85409        1.52363
C         -4.89233        0.70906        0.82491
O         -3.79980        0.29964        0.11675
H         -2.70809        2.99674        1.63054
H         -5.26536        2.40087        2.17203
H         -5.84392        0.19197        0.82619
C         -0.75432        2.75155       -1.00720
C         -0.71944        3.91197       -0.27381
C         -0.40303        4.94453       -1.15766
C         -0.25802        4.36947       -2.39633
O         -0.46680        3.02199       -2.31727
H         -0.88300        3.99793        0.78823
H         -0.29314        5.98885       -0.91502
H         -0.01152        4.89309       -3.31168
Fe        -1.26440       -2.16229       -0.96723
C         -2.16995       -2.04481        0.85852
C         -0.85525       -2.63879        0.97701
C         -0.81330       -3.82527        0.14298
C         -2.10641       -3.94966       -0.50580
C         -2.95600       -2.86713       -0.04043
H         -2.51186       -1.14540        1.37440
H         -0.06969       -2.28255        1.64581
H          0.02318       -4.52115        0.04718
H         -2.40780       -4.75298       -1.18235
H         -3.99633       -2.69173       -0.32359
