72
-98.09964251
Fe        -0.00135        2.85368        0.03610
P          1.81356       -0.06830        0.08795
P         -1.83431       -0.05389        0.00278
C          1.39610        1.58337        0.75368
C          0.38620        1.86502        1.75924
C          0.37447        3.29611        2.00910
C          1.37025        3.90416        1.14508
C          2.00989        2.84685        0.37954
C         -1.43473        1.61360       -0.65144
C         -2.02990        2.86805       -0.21699
C         -1.42557        3.94498       -0.98273
C         -0.47437        3.35851       -1.90855
C         -0.48395        1.92034       -1.70587
C          3.24965       -0.73084        1.05689
C          4.45229       -0.27034        0.21715
C          2.64100        0.08073       -1.56840
C          4.11708       -0.27208       -1.29603
C         -3.17113       -0.75050       -1.08302
C         -4.38989        0.05367       -0.60038
C         -2.90233        0.14829        1.51410
C         -4.31759        0.36367        0.92396
H         -0.24774        1.12377        2.24671
H         -0.26975        3.81974        2.71915
H          1.61724        4.96738        1.10023
H          2.82143        2.97191       -0.34049
H         -2.79514        2.97905        0.55373
H          0.09095        1.19291       -2.27780
Cl         1.52985       -3.16893        0.18370
Cl        -1.58561       -3.14922        0.05253
Pd        -0.01164       -1.52930        0.02369
H          3.17321       -1.82369        1.03989
C          3.28912       -0.23510        2.49805
H          2.53847        1.12927       -1.87176
C          1.99205       -0.83645       -2.59806
H          5.33083       -0.89936        0.42879
H          4.73335        0.74465        0.53174
H          4.78341        0.40948       -1.84546
H          4.32130       -1.27087       -1.70487
H         -1.66529        5.00712       -0.89548
H          0.12904        3.89989       -2.64072
H          4.25890       -0.50061        2.94151
H          2.11245       -1.87736       -2.26885
H         -3.29198       -1.80736       -0.81958
C         -2.88726       -0.61058       -2.57668
H         -2.55232        1.04226        2.04357
C         -2.85249       -1.06404        2.44341
H         -5.32340       -0.47245       -0.85402
H         -4.42382        0.99510       -1.16831
H         -4.66661        1.38779        1.12277
H         -5.02432       -0.28450        1.46080
H         -3.83361       -0.69151       -3.12941
H         -3.04998       -1.96637        1.85014
C          2.16061       -0.78985        3.34843
H          2.17713       -1.88122        3.36611
H          2.21202       -0.44007        4.38198
H          1.19319       -0.48973        2.94953
C          2.55329       -0.65342       -4.00011
H          3.62423       -0.86114       -4.03093
H          2.07037       -1.31421       -4.72363
H          2.41470        0.37202       -4.34805
C         -1.90189       -1.64389       -3.09758
H         -0.96095       -1.60226       -2.55194
H         -2.29087       -2.65647       -2.97482
H         -1.67652       -1.50254       -4.15701
C         -1.55039       -1.21265        3.21043
H         -1.34090       -0.32718        3.81336
H         -1.56949       -2.07143        3.88537
H         -0.70975       -1.35721        2.53457
H          3.26308        0.86243        2.49671
H          0.91006       -0.66545       -2.60570
H         -2.52484        0.40599       -2.77563
H         -3.68738       -0.99951        3.15526
