72
-108.40313345
Cl         1.76279       -0.86702        2.60598
Cl        -0.94073        0.79198        2.78722
P         -1.14758        1.14149       -0.27655
P          2.27924       -0.13959       -0.36314
C          3.27730        1.45241       -0.09341
C          3.63310        1.57177        1.38954
C          4.54291        1.42051       -0.94250
C          3.34647       -1.70299       -0.15671
C          4.15615       -1.96578       -1.43294
C          1.45909       -0.38050       -2.04747
C          1.51804        0.81531       -2.97463
C         -1.13108       -0.19293       -1.51281
C          0.04319       -0.92705       -1.98537
C         -0.44851       -2.01764       -2.82790
C         -1.89583       -1.93925       -2.87774
C         -2.31663       -0.78805       -2.10146
C          2.42513        2.65861       -0.46960
H          2.74039        1.54951        2.01469
H          4.29279        0.77455        1.72134
H          5.07835        2.36844       -0.86816
H          4.31479        1.25195       -1.99406
C          4.30633       -1.60428        1.02513
H          3.53470       -2.34698       -2.24240
H          4.92107       -2.72226       -1.24975
H          2.06596       -1.17116       -2.49851
H          1.15080        0.55628       -3.96982
H          2.52989        1.20221       -3.09076
H          0.87569        1.61268       -2.60845
H          0.17558       -2.71131       -3.39403
H         -2.55287       -2.59582       -3.45296
Pd         0.50334        0.27158        1.13966
H         -3.34169       -0.45948       -1.91669
C          2.36881       -2.84687        0.07094
H          4.65981       -1.06762       -1.78562
H          3.78672       -1.33317        1.94176
H          4.79193       -2.56506        1.20203
H          5.09730       -0.87982        0.84021
H          1.86921       -2.73819        1.03237
H          1.61101       -2.87667       -0.71334
H          2.88646       -3.80817        0.07623
H          4.14702        2.51421        1.58573
H          5.22588        0.63905       -0.61366
H          1.48148        2.64564        0.07279
H          2.93692        3.58779       -0.21343
H          2.21446        2.69807       -1.53512
C         -2.82348        1.21901        0.40500
C         -3.26865        2.17836        1.28003
C         -4.59969        1.88081        1.57244
C         -4.91432        0.75054        0.85933
O         -3.83316        0.33405        0.13774
H         -2.68811        2.99305        1.68035
H         -5.25182        2.42885        2.23273
H         -5.87407        0.24875        0.85961
C         -0.75459        2.75848       -0.96615
C         -0.65153        3.89483       -0.20231
C         -0.33863        4.94270       -1.06936
C         -0.26489        4.40037       -2.32897
O         -0.51485        3.05852       -2.27938
H         -0.77123        3.95366        0.86762
H         -0.18469        5.97541       -0.80222
H         -0.04071        4.94296       -3.23899
Fe        -1.31538       -2.10834       -0.94123
C         -2.98567       -2.74649        0.04153
C         -2.16047       -1.97365        0.94889
C         -0.86888       -2.61942        1.02432
C         -0.89729       -3.79634        0.17659
C         -2.21898       -3.89251       -0.41498
H         -4.02437       -2.52463       -0.21452
H         -2.44957       -1.06015        1.47128
H         -0.04447       -2.28844        1.65772
H         -0.08912       -4.52078        0.05474
H         -2.57028       -4.67826       -1.08735
