72
-108.40112155
Cl         1.68377       -0.91288        2.65370
Cl        -0.80509        1.03630        2.82314
P         -1.13626        1.12604       -0.27758
P          2.24861       -0.14472       -0.37532
C          3.25164        1.44857       -0.12545
C          3.60608        1.59236        1.35633
C          4.51964        1.40247       -0.97036
C          3.31616       -1.70189       -0.13550
C          4.14453       -1.98192       -1.39595
C          1.44012       -0.41847       -2.05862
C          1.51207        0.75803       -3.00961
C         -1.13977       -0.19172       -1.52964
C          0.01906       -0.95358       -1.99618
C         -0.48043       -2.01447       -2.87360
C         -1.92547       -1.91946       -2.92195
C         -2.32884       -0.79312       -2.10252
C          2.40286        2.65012       -0.52124
H          4.11453        2.54073        1.53751
H          2.71433        1.57546        1.98279
H          5.05296        2.35278       -0.91322
H          4.29549        1.21261       -2.01905
C          4.25751       -1.58270        1.05897
H          4.90319       -2.73941       -1.19214
H          4.65762       -1.09035       -1.75116
H          2.04496       -1.22253       -2.48813
H          0.86460        1.56276       -2.66880
H          1.15823        0.47848       -4.00412
H          2.52530        1.14272       -3.12012
H          0.13751       -2.70179       -3.45409
H         -2.59192       -2.55873       -3.50482
Pd         0.50858        0.27925        1.16134
H         -3.35056       -0.45970       -1.90964
C          2.33854       -2.84494        0.09339
H          3.53445       -2.36920       -2.21105
H          3.72511       -1.28501        1.95994
H          4.73263       -2.54259        1.26657
H          5.05734       -0.86922        0.86896
H          1.81855       -2.72097        1.04203
H          1.59767       -2.89158       -0.70607
H          2.85940       -3.80397        0.12654
H          4.27135        0.80540        1.70081
H          5.20342        0.62967       -0.62312
H          2.17885        2.66444       -1.58458
H          1.46622        2.65569        0.03315
H          2.92275        3.58223       -0.29361
C         -2.80785        1.20075        0.41774
C         -3.23708        2.12397        1.33856
C         -4.57196        1.83386        1.62010
C         -4.90588        0.74428        0.85469
O         -3.83266        0.34566        0.11159
H         -2.64278        2.90767        1.77852
H         -5.21384        2.35980        2.30784
H         -5.87334        0.25802        0.83361
C         -0.74744        2.74646       -0.96023
C         -0.68770        3.88760       -0.19901
C         -0.36216        4.93653       -1.06004
C         -0.23688        4.38984       -2.31368
O         -0.46673        3.04430       -2.26582
H         -0.84238        3.94880        0.86610
H         -0.23352        5.97269       -0.79288
H          0.01031        4.93184       -3.21806
Fe        -1.29096       -2.13056       -0.96166
C         -2.98427       -2.82562       -0.03994
C         -2.21426       -2.01732        0.88533
C         -0.90313       -2.61701        1.00286
C         -0.86755       -3.80744        0.17366
C         -2.16222       -3.94388       -0.46659
H         -4.02139       -2.64295       -0.33063
H         -2.55481       -1.11232        1.39139
H         -0.11002       -2.25764        1.66096
H         -0.03667       -4.51122        0.09011
H         -2.46621       -4.74662       -1.14188
