111
-148.55566650
P         -2.63682       -1.94907       -0.16472
P          0.12915       -0.44678       -0.48789
C         -1.83797       -1.87628       -1.79110
C         -0.61214       -1.25881       -1.91769
C         -3.51275       -3.55533        0.11147
C         -2.74020       -4.45037        1.05567
C         -2.45087       -2.42225       -2.90068
H         -3.41836       -2.88632       -2.80110
C         -1.82699       -2.35539       -4.13467
H         -2.30454       -2.78193       -5.00164
C         -0.59611       -1.73962       -4.25764
H         -0.11235       -1.68469       -5.21897
C          0.01098       -1.18409       -3.14582
H          0.96297       -0.68301       -3.22736
Pd        -1.02285       -1.28341        1.33648
Cl        -2.39184       -1.80344        3.03523
Cl         0.64322       -0.58097        2.67509
C         -4.89069       -3.10626        0.63279
C         -4.04508       -0.76432        0.03252
H         -2.61197       -3.97056        2.02695
H         -3.25885       -5.39736        1.22236
H         -1.74380       -4.67231        0.66607
H         -4.86227       -3.08723        1.73105
H         -5.66114       -3.84701        0.36975
H         -3.88875       -0.26623        0.99890
C         -5.27099       -1.69423        0.10202
C         -4.08323        0.24698       -1.09254
H         -3.61376       -4.02997       -0.87274
H         -5.70278       -1.78558       -0.90415
H         -6.06010       -1.24134        0.72139
H         -4.17012       -0.25192       -2.05950
H         -4.93240        0.92674       -0.99079
H         -3.17178        0.84735       -1.11433
C         -1.38169        3.84488       -0.29446
C         -0.82130        3.23770        0.85815
C         -0.37840        1.93155        0.75656
C         -0.39858        1.26484       -0.43944
C         -0.83056        1.88667       -1.58122
C         -1.29691        3.19043       -1.55042
O         -2.06817        5.08313       -0.18363
C         -0.72733        3.94668        2.21741
H         -0.02988        1.39887        1.62406
H         -0.82149        1.32731       -2.50002
C         -1.74316        3.85668       -2.86111
C          4.64784       -0.89586       -0.12722
C          4.02413        0.32824        0.23102
C          2.64823        0.41986        0.10974
C          1.90832       -0.61105       -0.40683
C          2.51797       -1.75208       -0.85934
C          3.89294       -1.90695       -0.78037
O          5.99737       -1.13770        0.23682
C          4.77967        1.56254        0.75145
H          2.13280        1.30519        0.43937
H          1.90238       -2.53227       -1.27438
C          4.51449       -3.15848       -1.42378
C         -0.57105        5.46811        2.04441
C         -1.98617        3.63069        3.03934
C          0.51200        3.45439        3.00014
C         -0.93529        3.30288       -4.05675
C         -3.23249        3.56493       -3.10013
C         -1.50037        5.37637       -2.82052
C         -3.45310        4.94863        0.11090
H         -1.44418        5.90566        1.56726
H         -0.44045        5.96065        3.00765
H          0.29654        5.69639        1.42618
H         -1.94617        4.11206        4.01604
H         -2.88465        3.97344        2.53132
H         -2.08384        2.55657        3.19601
H          0.41247        2.41350        3.30383
H          1.41383        3.55058        2.39631
H          0.65354        4.03953        3.90841
H         -1.15708        3.86201       -4.96549
H          0.13549        3.37943       -3.86957
H         -1.17523        2.25972       -4.25739
H         -3.57721        4.02749       -4.02459
H         -3.40820        2.49213       -3.17493
H         -3.84463        3.94500       -2.28576
H         -0.45412        5.59218       -2.60663
H         -1.75459        5.83961       -3.77355
H         -2.10321        5.85389       -2.05207
H         -3.73018        3.89497        0.16531
H         -3.67470        5.43122        1.06258
H         -4.04045        5.43936       -0.66509
C          6.12174       -1.73653        1.51606
C          4.26301        2.82632        0.02754
C          4.52945        1.71227        2.26142
C          6.29235        1.47856        0.48424
C          4.20404       -4.38900       -0.55584
C          3.90899       -3.36616       -2.83004
C          6.03678       -3.02834       -1.60656
H          4.34935        2.71273       -1.05269
H          3.22001        3.03184        0.26252
H          4.83887        3.70395        0.32016
H          4.90674        0.85179        2.81026
H          5.02216        2.60224        2.65199
H          3.46403        1.79745        2.47266
H          6.48654        1.30311       -0.57329
H          6.79441        2.40128        0.77422
H          6.74757        0.66639        1.04595
H          3.12887       -4.52590       -0.44471
H          4.61320       -5.29437       -1.00343
H          4.62968       -4.28589        0.44034
H          2.84302       -3.58271       -2.78490
H          4.04630       -2.47565       -3.44281
H          4.38800       -4.20187       -3.33957
H          6.28113       -2.12346       -2.16185
H          6.44159       -3.88138       -2.15063
H          6.54666       -2.97861       -0.64742
H          5.66898       -1.09828        2.27293
H          5.61961       -2.70232        1.52737
H          7.17803       -1.87663        1.74659
