171
-217.84176739
P         -1.52788       -0.01123       -0.17889
P          1.77073       -0.41203        0.03261
C         -0.89313        1.17428       -1.37736
C          1.13796       -1.28983       -1.41402
C          0.00506        0.73535       -2.34171
C          0.53324        1.66504       -3.25804
C          0.10100        2.98051       -3.20413
C         -0.81143        3.39236       -2.25484
C         -1.30505        2.48343       -1.34003
C          1.40611       -2.63844       -1.42741
C          0.91680       -3.43697       -2.44296
C          0.14269       -2.87538       -3.43520
C         -0.15423       -1.52292       -3.43113
C          0.36028       -0.70546       -2.40690
Cl         1.27043       -1.32913        3.14484
Cl        -1.75904       -2.13275        2.30211
C         -1.03223       -0.97491       -4.50142
C          1.52555        1.24916       -4.28706
H         -1.13505        4.41993       -2.22400
H         -2.02133        2.79367       -0.59884
H          1.99402       -3.06742       -0.62920
H          1.13113       -4.49313       -2.45242
H          0.48074        3.68533       -3.92395
H         -0.25355       -3.49302       -4.22359
C         -3.95384       -3.09241       -2.44767
C         -3.07478       -3.53035       -1.46544
C         -2.35630       -2.57192       -0.76393
C         -2.49810       -1.23925       -1.05648
C         -3.35028       -0.82586       -2.05155
C         -4.10635       -1.74857       -2.76528
H         -4.54586       -3.82020       -2.97094
H         -1.68586       -2.85869        0.02544
H         -3.40327        0.22315       -2.28463
C         -4.33882        2.20585        2.64049
C         -4.63341        2.13182        1.28620
C         -3.75550        1.43143        0.46863
C         -2.61927        0.85313        0.98124
C         -2.34912        0.94222        2.32687
C         -3.21279        1.60607        3.18685
H         -5.00708        2.74248        3.28863
H         -3.95145        1.34128       -0.58439
H         -1.46328        0.48035        2.71931
C          2.15346        4.10563        0.01370
C          2.93450        3.34724       -0.84851
C          2.75742        1.96971       -0.83968
C          1.84385        1.38589        0.00314
C          1.09380        2.15145        0.86556
C          1.23716        3.53314        0.88863
H          2.28258        5.17144        0.01051
H          3.34511        1.33731       -1.48135
H          0.40131        1.67088        1.53345
C          6.06884       -1.74211        0.59434
C          5.25236       -1.66777        1.71689
C          3.93386       -1.27909        1.53253
C          3.45575       -0.98590        0.28191
C          4.27366       -1.07091       -0.81836
C          5.60376       -1.44974       -0.68220
H          7.09584       -2.03383        0.70889
H          3.26407       -1.21566        2.37045
H          3.86115       -0.84229       -1.78641
Pd        -0.04779       -1.02511        1.36036
C         -2.50516       -5.76045       -2.46104
C         -2.92912       -5.02989       -1.17353
C         -4.27761       -5.58294       -0.67924
C         -1.86319       -5.29568       -0.09155
H         -2.37494       -6.82713       -2.27942
H         -3.25034       -5.64508       -3.24712
H         -1.56117       -5.36440       -2.83417
H         -4.20227       -6.64493       -0.44633
H         -4.59918       -5.06112        0.22190
H         -5.05521       -5.46031       -1.43231
H         -0.88956       -4.91423       -0.39862
H         -2.13596       -4.82523        0.85284
H         -1.75632       -6.36451        0.09237
C         -4.99194       -2.16062       -5.09439
C         -5.13874       -1.31254       -3.81574
C         -4.96239        0.17002       -4.20108
C         -6.54786       -1.50693       -3.22905
H         -3.98821       -2.07152       -5.50768
H         -5.18421       -3.21493       -4.90142
H         -5.69747       -1.83415       -5.85832
H         -5.66697        0.45275       -4.98309
H         -5.14282        0.82464       -3.34914
H         -3.95686        0.36018       -4.57550
H         -6.72375       -2.55149       -2.97335
H         -6.67218       -0.91585       -2.32181
H         -7.31420       -1.20031       -3.94073
C         -7.13276        2.28399        1.45825
C         -5.88639        2.82500        0.73355
C         -6.05630        2.57196       -0.77773
C         -5.76443        4.34192        0.96557
H         -8.04100        2.74119        1.06592
H         -7.21451        1.20502        1.32809
H         -7.09225        2.49013        2.52705
H         -5.20941        2.96489       -1.34017
H         -6.14783        1.50642       -0.98749
H         -6.95524        3.06050       -1.15338
H         -6.63268        4.86870        0.57007
H         -5.68736        4.57405        2.02723
H         -4.87589        4.73590        0.47222
C         -2.79147        3.13584        5.12960
C         -2.96745        1.66850        4.70138
C         -1.70616        0.87964        5.10783
C         -4.17445        1.05429        5.43497
H         -2.60558        3.21030        6.20088
H         -1.94951        3.58985        4.60930
H         -3.68033        3.72344        4.90273
H         -1.55615        0.91866        6.18651
H         -1.79169       -0.16926        4.82431
H         -0.81375        1.29045        4.63812
H         -4.01906        1.05893        6.51366
H         -5.08926        1.60828        5.22833
H         -4.32939        0.02239        5.12040
C          3.28938        4.97819       -2.72245
C          3.98809        4.02942       -1.73346
C          4.81059        2.99983       -2.53380
C          4.95753        4.83037       -0.84359
H          4.01676        5.48934       -3.35290
H          2.61257        4.42533       -3.37181
H          2.70759        5.73641       -2.19951
H          4.17448        2.41909       -3.20038
H          5.56204        3.49682       -3.14713
H          5.33056        2.31206       -1.86713
H          5.73846        5.29956       -1.44181
H          4.43902        5.61804       -0.29846
H          5.43737        4.17792       -0.11426
C         -1.06062        4.22756        1.63917
C          0.44673        4.36753        1.90895
C          0.81352        5.86239        1.83357
C          0.77164        3.86035        3.32612
H         -1.30960        4.60083        0.64654
H         -1.37388        3.18766        1.69897
H         -1.64370        4.79396        2.36489
H          0.25274        6.43493        2.57235
H          1.87389        6.01692        2.03245
H          0.58010        6.27486        0.85213
H          1.84178        3.92577        3.52148
H          0.25493        4.45126        4.08182
H          0.47385        2.82066        3.45076
C          5.58140       -0.75016        4.02607
C          5.74722       -1.99393        3.13309
C          7.23146       -2.40683        3.13870
C          4.91354       -3.15578        3.70544
H          5.94140       -0.94413        5.03624
H          6.14382        0.09141        3.62219
H          4.53636       -0.45069        4.09696
H          7.86325       -1.60481        2.75739
H          7.56501       -2.63606        4.15073
H          7.39366       -3.29556        2.52908
H          3.85880       -2.89141        3.77154
H          4.99766       -4.03843        3.07186
H          5.25269       -3.42386        4.70579
C          7.10536       -2.96683       -1.99990
C          6.55353       -1.53402       -1.88542
C          7.71446       -0.54265       -1.68506
C          5.83416       -1.18217       -3.20305
H          7.76731       -3.06225       -2.86045
H          7.67145       -3.24615       -1.11211
H          6.29263       -3.68334       -2.11788
H          8.28820       -0.78045       -0.79007
H          8.39706       -0.56419       -2.53442
H          7.33787        0.47469       -1.58025
H          6.51931       -1.25045       -4.04792
H          5.00694       -1.86588       -3.39324
H          5.44343       -0.16513       -3.17817
H         -0.50942       -0.94486       -5.45842
H          1.02819        0.94901       -5.21007
H         -1.37005        0.03520       -4.26740
H         -1.91897       -1.59724       -4.62399
H          2.12656        0.40821       -3.93727
H          2.20792        2.06531       -4.52809
