105
-153.07207271
Cl        -0.52976        1.97610       -2.96019
Pd         0.36851        1.17965       -1.05415
P          1.47713        0.56346        0.91694
N          1.33167       -1.03780        1.62576
C          0.28038       -1.95621        1.52033
C         -0.17738       -2.45486        0.27215
C         -1.19094       -3.43392        0.24815
C         -1.64090       -3.98415       -1.08455
C         -2.47347       -5.27248       -0.99519
C         -3.51659       -5.17445        0.12155
C         -2.83669       -4.94153        1.47903
C         -1.74170       -3.90472        1.44286
C         -1.25656       -3.42363        2.65203
C         -0.26332       -2.48083        2.69286
H          0.09996       -2.11994        3.63923
H         -1.67661       -3.80126        3.56896
H         -3.57980       -4.64439        2.23012
H         -4.19965       -4.34291       -0.09237
H         -2.95431       -5.49487       -1.95828
H         -2.22082       -3.20906       -1.59857
C          0.52623       -2.11344       -0.98752
C         -0.18916       -1.49740       -2.05311
C          0.45529       -1.33511       -3.28353
C          1.75544       -1.73177       -3.45633
C          2.46675       -2.34057       -2.42982
C          3.87706       -2.79316       -2.70640
C          4.31901       -3.95526       -1.80637
C          4.03338       -3.63487       -0.33640
C          2.54217       -3.33450       -0.09957
C          1.85130       -2.54893       -1.19327
H          1.99645       -4.27573        0.03728
H          4.63583       -2.77043       -0.03136
H          5.38317       -4.18608       -1.95763
H          4.55337       -1.94048       -2.57518
H          2.24085       -1.57467       -4.40463
H         -0.07346       -0.85109       -4.08584
N         -1.48309       -0.98045       -1.88991
P         -1.71430        0.18022       -0.58058
C         -2.56664       -0.46798        0.84795
C         -3.63171       -1.31967        0.68393
C         -4.33301       -1.75685        1.79350
C         -3.97035       -1.33951        3.06766
C         -2.91237       -0.45044        3.20483
C         -2.21528       -0.01301        2.09368
H         -1.39561        0.67802        2.18805
H         -2.63534       -0.10490        4.18604
C         -4.72561       -1.80749        4.26206
H         -5.16703       -2.42727        1.67569
H         -3.90902       -1.63477       -0.30943
C         -2.69370        1.59837       -1.08730
C         -2.48320        2.80173       -0.45605
C         -3.23184        3.90648       -0.81822
C         -4.20421        3.80773       -1.80417
C         -4.40408        2.58170       -2.42498
C         -3.65405        1.47758       -2.06231
H         -3.81883        0.52236       -2.53346
H         -5.14985        2.49750       -3.19690
C         -4.98805        5.00494       -2.21608
H         -3.06148        4.85489       -0.33799
H         -1.72951        2.87454        0.31260
H         -1.86144       -0.52247       -2.70894
H          1.78319       -0.94831        2.52693
C          0.82344        1.82163        2.01925
C          0.65476        3.10258        1.54724
C          0.10758        4.07236        2.36649
C         -0.25971        3.76931        3.67043
C         -0.07055        2.47425        4.13353
C          0.47620        1.50603        3.31157
H          0.60826        0.49795        3.66738
H         -0.36227        2.22664        5.13991
C         -0.88304        4.80341        4.54189
H         -0.03939        5.07248        1.99583
H          0.95751        3.34005        0.53952
C          3.24277        0.82768        0.74397
C          3.94839        0.00535       -0.09849
C          5.31254        0.17666       -0.24830
C          5.97905        1.17067        0.45488
C          5.24703        1.99778        1.29637
C          3.88289        1.82390        1.44254
H          3.31434        2.46412        2.09702
H          5.75198        2.78212        1.83394
C          7.44254        1.37603        0.27277
H          5.86728       -0.45653       -0.91924
H          3.41795       -0.74858       -0.65572
Cl         2.38304        1.92913       -1.72775
H         -2.41152       -5.88365        1.84519
H         -1.80833       -6.12204       -0.79574
H         -4.14701       -6.07459        0.14748
H         -0.75710       -4.15298       -1.71269
H          4.36756       -4.45987        0.30849
H          2.42821       -2.79472        0.84644
H          3.96429       -3.07571       -3.76336
H          3.77540       -4.86444       -2.09278
H         -5.54611       -1.12685        4.49311
H         -5.14718       -2.80010        4.09708
H         -4.07824       -1.86530        5.13828
H         -5.96378        4.72081       -2.61232
H         -5.15613        5.67461       -1.37162
H         -4.46084        5.56449       -2.98976
H         -0.51651        5.80048        4.29372
H         -1.96767        4.80482        4.42525
H         -0.65761        4.62056        5.59347
H          7.63653        2.06706       -0.54864
H          7.89793        1.78811        1.17436
H          7.94703        0.43530        0.04777
