87
-129.18834257
P         -1.58698       -0.31400       -0.29680
P          1.64358        0.37050       -0.01264
C         -1.28169        0.97397       -1.51509
C          1.47674       -0.68125       -1.46872
C         -0.25676        0.84046       -2.44529
C         -0.01569        1.89733       -3.34535
C         -0.81567        3.02643       -3.29271
C         -1.83295        3.13528       -2.36888
C         -2.06023        2.10506       -1.47809
C          2.23871       -1.82420       -1.50771
C          2.11476       -2.71205       -2.55778
C          1.21135       -2.45341       -3.56541
C          0.42776       -1.31238       -3.54557
C          0.56866       -0.39638       -2.48471
Cl         1.17992        0.47860        3.19704
Cl        -1.44637       -1.42823        2.75601
H         -2.44243        4.02344       -2.33554
H         -2.84969        2.18468       -0.74942
H          2.93520       -2.02654       -0.71124
H          2.71467       -3.60697       -2.58355
H         -0.62798        3.83108       -3.98326
H          1.10106       -3.14822       -4.38068
C         -1.81782       -4.42117       -2.21944
C         -0.99202       -4.23202       -1.11979
C         -0.94662       -2.97274       -0.53435
C         -1.70569       -1.94176       -1.03707
C         -2.53059       -2.13939       -2.11928
C         -2.58856       -3.38671       -2.71304
H         -1.84997       -5.38924       -2.68960
C         -0.13212       -5.33330       -0.60830
H         -0.30701       -2.79982        0.31459
H         -3.11032       -1.31442       -2.50287
H         -3.22713       -3.54783       -3.56605
C         -5.31447        0.67767        2.12857
C         -5.31864       -0.41165        1.27980
C         -4.19197       -0.71226        0.53790
C         -3.07151        0.07688        0.64963
C         -3.06425        1.16085        1.49742
C         -4.19019        1.48317        2.24484
H         -6.18758        0.90807        2.71499
H         -6.19700       -1.03095        1.19995
H         -4.17773       -1.56558       -0.11996
H         -2.17466        1.76150        1.58913
C         -4.16532        2.63719        3.18404
C          5.39384       -0.76621        2.31030
C          5.34923        0.42836        1.61907
C          4.21055        0.77719        0.91765
C          3.12822       -0.07123        0.90810
C          3.17022       -1.26123        1.59795
C          4.30237       -1.62350        2.31744
H          6.28051       -1.04110        2.85578
H          6.20035        1.08942        1.62729
H          4.15969        1.71003        0.38076
H          2.31185       -1.91279        1.59204
C          4.34564       -2.91778        3.05072
C          1.46996        4.81297       -0.94948
C          2.35666        4.00282       -1.63162
C          2.41902        2.65187       -1.34397
C          1.60037        2.12741       -0.37165
C          0.72970        2.93502        0.32302
C          0.63831        4.29010        0.03131
H          1.41621        5.86411       -1.17620
H          2.99399        4.42089       -2.39344
H          3.09028        2.00063       -1.88140
H          0.11260        2.51307        1.09756
C         -0.31363        5.15742        0.77678
Pd        -0.05953       -0.22793        1.46608
C          1.08269        1.83032       -4.34899
C         -0.54853       -1.08457       -4.64722
H          1.64644        2.76401       -4.37064
H          1.78542        1.02842       -4.12018
H          0.68518        1.65599       -5.34955
H         -1.28384       -0.32502       -4.37972
H         -0.04085       -0.75873       -5.55582
H         -1.09361       -2.00079       -4.87844
H         -0.59970       -6.30571       -0.76895
H          0.83444       -5.33538       -1.11415
H          0.04895       -5.22492        0.46210
H         -3.54271        3.44495        2.79626
H         -5.16712        3.03812        3.34456
H         -3.76232        2.33738        4.15241
H          5.06563       -2.88422        3.86956
H          3.37046       -3.15709        3.47753
H          4.63085       -3.73225        2.38333
H          0.13515        5.51864        1.70312
H         -0.60670        6.02397        0.18231
H         -1.22209        4.61006        1.03342
