111
-148.55602584
P         -2.25444       -2.12359       -1.35085
P          0.14773       -0.20120       -0.59178
C         -1.15459       -1.50707       -2.64694
C         -0.12171       -0.65691       -2.31693
C         -2.39097       -3.96674       -1.39634
C         -1.52806       -4.60641       -0.32961
C         -1.34931       -1.88400       -3.96009
H         -2.14979       -2.56305       -4.20563
C         -0.51438       -1.39167       -4.94804
H         -0.66618       -1.68254       -5.97466
C          0.51183       -0.52729       -4.61876
H          1.16105       -0.14168       -5.38757
C          0.70956       -0.16069       -3.29946
H          1.50903        0.51025       -3.03066
Pd        -1.45053       -1.33268        0.65953
Cl        -3.25097       -2.25079        1.63094
Cl        -0.52557       -0.50330        2.52514
C         -3.90241       -4.19932       -1.22155
C         -4.03362       -1.66180       -1.59297
H         -1.83203       -4.27426        0.66480
H         -1.60800       -5.69576       -0.35147
H         -0.47587       -4.34021       -0.45725
H         -4.12024       -4.30529       -0.14973
H         -4.19918       -5.15515       -1.67974
H         -4.34999       -1.20920       -0.64385
C         -4.73184       -3.02026       -1.80334
C         -4.21949       -0.69262       -2.74318
H         -2.06745       -4.27703       -2.39848
H         -4.88084       -3.17789       -2.88022
H         -5.74233       -3.00113       -1.36811
H         -3.94390       -1.15697       -3.69099
H         -5.25926       -0.36840       -2.82847
H         -3.59447        0.19450       -2.62718
C         -1.21241        4.06133        0.25740
C         -2.13678        3.09721       -0.22203
C         -1.66589        1.82671       -0.51280
C         -0.36581        1.47948       -0.24918
C          0.48925        2.36537        0.35323
C          0.08925        3.65681        0.64896
O         -1.56774        5.43554        0.29658
C         -3.62825        3.40441       -0.42733
H         -2.31492        1.08153       -0.93870
H          1.48156        2.03266        0.59794
C          1.07099        4.60159        1.35866
C          4.36713       -1.00892        0.93517
C          4.15901       -0.00550       -0.04533
C          2.86615        0.22159       -0.48743
C          1.82067       -0.55041       -0.04945
C          2.03865       -1.59849        0.80632
C          3.30475       -1.87717        1.29256
O          5.62333       -1.11716        1.58888
C          5.30227        0.85528       -0.60628
H          2.65738        1.02682       -1.16974
H          1.19364       -2.18775        1.11676
C          3.49144       -3.07459        2.23685
C         -4.48280        2.17122       -0.05678
C         -4.09873        4.55573        0.48044
C         -3.87258        3.76299       -1.90053
C          1.93021        5.32114        0.30835
C          0.32277        5.63166        2.22427
C          1.99999        3.80783        2.30541
C         -1.30637        6.12478       -0.91933
H         -5.54512        2.41225       -0.08493
H         -4.32385        1.34661       -0.74739
H         -4.24371        1.82317        0.94781
H         -3.87814        4.33523        1.52432
H         -3.60462        5.48981        0.22594
H         -5.17258        4.71547        0.38656
H         -3.29558        4.63888       -2.19068
H         -3.57792        2.94098       -2.55237
H         -4.92570        3.97659       -2.08138
H          2.65150        5.98615        0.78264
H          2.48096        4.60227       -0.29796
H          1.31331        5.91666       -0.36120
H         -0.29236        6.28887        1.61436
H         -0.32967        5.13056        2.93855
H          1.02039        6.25647        2.78140
H          2.61309        4.48281        2.90210
H          1.41829        3.19023        2.98924
H          2.68050        3.15995        1.75590
H         -0.67482        6.99021       -0.71834
H         -0.80380        5.46590       -1.62858
H         -2.24275        6.47452       -1.35353
C          5.73715       -0.31225        2.75588
C          6.62890        0.07418       -0.62547
C          5.00511        1.26999       -2.06543
C          5.44841        2.12658        0.24375
C          3.25666       -2.61680        3.68444
C          2.47892       -4.19483        1.90449
C          4.89784       -3.68330        2.09224
H          6.95269       -0.18373        0.37965
H          6.52061       -0.85179       -1.18921
H          7.42291        0.66120       -1.08638
H          5.86669        1.76878       -2.50876
H          4.77224        0.39803       -2.67613
H          4.16866        1.96464       -2.12574
H          5.65543        1.88486        1.28359
H          6.26096        2.75182       -0.12540
H          4.53227        2.71542        0.21586
H          3.36412       -3.44874        4.37987
H          3.96463       -1.84355        3.97289
H          2.25352       -2.20678        3.79986
H          1.45794       -3.90013        2.14257
H          2.52367       -4.45708        0.84776
H          2.69367       -5.09382        2.48178
H          5.66873       -2.97629        2.38835
H          5.08715       -3.97020        1.05841
H          5.00713       -4.57005        2.71609
H          5.95336       -0.94496        3.61658
H          6.55964        0.39271        2.63614
H          4.81073        0.23619        2.93141
