105
-153.07001865
Cl        -0.91244        2.72381       -2.52948
Pd        -0.06202        1.72955       -0.69478
P          1.10784        0.57602        1.00110
N          0.41616       -0.82206        1.83358
C         -0.07054       -2.08599        1.52016
C         -0.01336       -2.67565        0.23401
C         -0.63838       -3.91762        0.00289
C         -0.62519       -4.49287       -1.39410
C         -0.95334       -5.99238       -1.45306
C         -2.18752       -6.31060       -0.60334
C         -1.95682       -5.92066        0.86547
C         -1.27538       -4.58694        1.04938
C         -1.27061       -4.01928        2.31691
C         -0.68312       -2.80221        2.54761
H         -0.72052       -2.36580        3.53075
H         -1.75124       -4.54488        3.12476
H         -2.91108       -5.90620        1.40760
H         -3.04954       -5.75657       -0.99600
H         -1.09826       -6.32206       -2.49160
H         -1.34487       -3.93652       -2.00600
C          0.70625       -2.02400       -0.88551
C         -0.02272       -1.18693       -1.76380
C          0.64722       -0.59364       -2.83597
C          1.96001       -0.89789       -3.09215
C          2.65909       -1.80248       -2.29869
C          4.05711       -2.19347       -2.69908
C          4.46450       -3.56830       -2.14985
C          4.21354       -3.63743       -0.64001
C          2.73845       -3.36473       -0.29228
C          2.04048       -2.35551       -1.17553
H          2.17782       -4.30567       -0.33741
H          4.85065       -2.89919       -0.14037
H          5.51559       -3.78945       -2.38396
H          4.75637       -1.42942       -2.34309
H          2.45757       -0.45270       -3.93689
H          0.10499        0.08549       -3.46992
N         -1.41328       -1.02774       -1.60281
P         -1.99236        0.40009       -0.75528
C         -2.59253        0.05783        0.89469
C         -3.20890       -1.13484        1.19148
C         -3.67753       -1.36475        2.47203
C         -3.53730       -0.39936        3.45934
C         -2.94648        0.81226        3.12868
C         -2.47183        1.03901        1.84878
H         -2.01519        1.98132        1.58745
H         -2.86435        1.57924        3.88004
C         -4.05120       -0.64249        4.83530
H         -4.15243       -2.30044        2.71318
H         -3.32326       -1.88537        0.42689
C         -3.25494        1.25695       -1.68861
C         -3.93183        2.32462       -1.14980
C         -4.88253        2.98412       -1.90768
C         -5.16141        2.57547       -3.20549
C         -4.45768        1.50120       -3.73387
C         -3.50739        0.84294       -2.97358
H         -2.94895        0.01273       -3.37610
H         -4.65278        1.18801       -4.74519
C         -6.16156        3.30636       -4.03187
H         -5.41093        3.82694       -1.49592
H         -3.71160        2.64134       -0.14315
H         -1.90294       -1.78084       -1.13766
H          0.48789       -0.61129        2.82144
C          1.23476        1.85839        2.26586
C          0.28967        1.94664        3.25930
C          0.39389        2.92072        4.23497
C          1.45786        3.81153        4.23176
C          2.40667        3.70836        3.22440
C          2.29716        2.73144        2.25204
H          3.03609        2.65296        1.47119
H          3.23059        4.40105        3.20321
C          1.55732        4.88140        5.26278
H         -0.35383        2.99508        5.00608
H         -0.52827        1.24884        3.27364
C          2.81201        0.22330        0.57274
C          3.43183        0.80184       -0.50915
C          4.77598        0.57429       -0.73569
C          5.51144       -0.23015        0.12396
C          4.87664       -0.78027        1.22930
C          3.52927       -0.55485        1.45003
H          3.03196       -0.97317        2.31113
H          5.44297       -1.38503        1.91681
C          6.96274       -0.46374       -0.11255
H          5.26537        1.03016       -1.57944
H          2.87159        1.45559       -1.15571
Cl         1.56108        3.27726       -0.58879
H         -1.35159       -6.68996        1.35983
H         -0.09663       -6.56655       -1.07843
H         -2.45630       -7.37298       -0.68932
H          0.35153       -4.30361       -1.85562
H          4.53204       -4.61030       -0.24006
H          2.65079       -3.03123        0.74906
H          4.13727       -2.17885       -3.79354
H          3.87828       -4.34842       -2.65169
H         -3.47136       -0.08900        5.57533
H         -5.09282       -0.33012        4.92086
H         -3.99406       -1.70059        5.09491
H         -6.63945        2.64073       -4.75202
H         -6.94633        3.73882       -3.40963
H         -5.68649        4.11682       -4.58623
H          2.59839        5.13386        5.46892
H          1.05071        5.78808        4.92936
H          1.10102        4.56685        6.20243
H          7.19334       -0.45841       -1.17884
H          7.56276        0.31144        0.36587
H          7.27704       -1.42850        0.28822
