72
-98.09706092
Fe        -0.02270        2.81299        0.00660
P          1.82536       -0.07071        0.03399
P         -1.82186       -0.08324       -0.03410
C          1.40009        1.57764        0.71458
C          0.40398        1.85156        1.73586
C          0.36078        3.28648        1.95816
C          1.33921        3.90539        1.08261
C          1.97932        2.85047        0.31458
C         -1.41689        1.57068       -0.71232
C         -2.01607        2.83405       -0.31030
C         -1.38548        3.89887       -1.07229
C         -0.39470        3.29211       -1.94292
C         -0.43273        1.85387       -1.74262
C          3.20106       -0.78972        1.04294
C          4.44200       -0.22012        0.33602
C          2.74458        0.13196       -1.56704
C          4.22239       -0.12270       -1.19762
C         -3.18693       -0.82254       -1.04205
C         -4.43508       -0.26255       -0.34014
C         -2.74413        0.10300        1.56675
C         -4.22028       -0.15761        1.19378
H         -0.19218        1.10619        2.26194
H         -0.27979        3.80537        2.67521
H          1.56412        4.97271        1.02130
H          2.77710        2.98456       -0.41916
H         -2.81519        2.95567        0.42428
H          0.17226        1.11733       -2.27077
Cl         1.59929       -3.09020       -0.35663
Cl        -1.54484       -3.13879        0.33511
Pd         0.00409       -1.53733        0.00325
H          3.15989       -1.87786        0.91792
C          3.10306       -0.42980        2.52046
H          2.59061        1.17153       -1.87904
C          2.22328       -0.82119       -2.63633
H          5.33024       -0.82666        0.57182
H          4.64977        0.77928        0.74423
H          4.86801        0.65267       -1.63591
H          4.54355       -1.06405       -1.66352
H         -1.61960        4.96392       -1.00610
H          0.24092        3.82125       -2.65693
H          4.05053       -0.68187        3.01681
H          2.43496       -1.85205       -2.32355
H         -3.13384       -1.90944       -0.91048
C         -3.09036       -0.46969       -2.52132
H         -2.59637        1.14076        1.88771
C         -2.21771       -0.85705        2.62743
H         -5.31692       -0.87831       -0.57615
H         -4.65124        0.73340       -0.75249
H         -4.86962        0.61770        1.62660
H         -4.54017       -1.09780        1.66286
H         -4.03510       -0.73249       -3.01734
H         -1.12480       -0.78942        2.67192
C          1.94802       -1.12651        3.21932
H          1.86876       -0.84195        4.27092
H          1.00095       -0.88366        2.73969
H          2.05657       -2.21192        3.17686
C          2.81274       -0.55283       -4.01274
H          3.89993       -0.64795       -4.00560
H          2.42773       -1.24507       -4.76497
H          2.58102        0.45967       -4.34885
C         -1.92876       -1.16043       -3.21511
H         -1.85033       -0.88061       -4.26804
H         -0.98452       -0.90739       -2.73528
H         -2.02843       -2.24647       -3.16722
C         -2.81058       -0.60617        4.00572
H         -2.42243       -1.30370        4.75141
H         -2.58531        0.40423        4.35236
H         -3.89716       -0.70763        3.99629
H          3.00796        0.65992        2.61431
H          1.12999       -0.76040       -2.67857
H         -3.00441        0.62028       -2.62087
H         -2.42203       -1.88619        2.30396
