111
-148.55712126
P         -2.39653       -2.20666       -0.47517
P          0.06244       -0.21504       -0.46366
C         -1.54901       -1.82269       -2.02768
C         -0.47774       -0.95746       -2.01498
C         -2.81514       -4.00454       -0.35709
C         -1.90050       -4.71340        0.61808
C         -1.97484       -2.37621       -3.21799
H         -2.82229       -3.04220       -3.22278
C         -1.31788       -2.06358       -4.39570
H         -1.64834       -2.49559       -5.32616
C         -0.24228       -1.19619       -4.38042
H          0.26825       -0.95159       -5.29732
C          0.17699       -0.63802       -3.18598
H          1.01131        0.04537       -3.15677
Pd        -1.10268       -1.32380        1.21480
Cl        -2.61349       -2.10302        2.67669
Cl         0.26794       -0.37383        2.71334
C         -4.29882       -3.98281        0.05571
C         -4.08910       -1.46550       -0.37629
H         -1.98540       -4.27727        1.61489
H         -2.14892       -5.77417        0.69994
H         -0.85446       -4.63155        0.31269
H         -4.35953       -4.03063        1.15178
H         -4.81200       -4.88587       -0.30844
H         -4.15486       -0.99041        0.61147
C         -5.01415       -2.69549       -0.44448
C         -4.31031       -0.45274       -1.47983
H         -2.70347       -4.42035       -1.36659
H         -5.33705       -2.83793       -1.48490
H         -5.93657       -2.51209        0.12718
H         -3.57035        0.34975       -1.43812
H         -4.22149       -0.92370       -2.46039
H         -5.30475       -0.00464       -1.41767
C         -1.37922        4.10734       -0.42862
C         -2.12028        3.10372        0.24508
C         -1.65486        1.80100        0.19391
C         -0.46161        1.49668       -0.40829
C          0.31005        2.47948       -0.97168
C         -0.10329        3.80242       -0.96787
O         -1.93351        5.40497       -0.59179
C         -3.41262        3.40782        1.02007
H         -2.22998        1.00207        0.62695
H          1.24087        2.19407       -1.43031
C          0.81233        4.87566       -1.57817
C          4.47557       -0.96512        0.37571
C          3.84904        0.18744        0.91477
C          2.50848        0.39683        0.63477
C          1.81739       -0.44833       -0.19307
C          2.44598       -1.50626       -0.79738
C          3.78809       -1.76486       -0.57270
O          5.76883       -1.34820        0.82032
C          4.57673        1.16973        1.84540
H          1.97047        1.20806        1.09392
H          1.86426       -2.14305       -1.44146
C          4.46238       -2.92103       -1.32767
C         -3.60758        2.39579        2.17300
C         -3.35349        4.80852        1.65605
C         -4.61837        3.30766        0.07420
C          2.29754        4.49465       -1.39216
C          0.51873        4.99611       -3.08115
C          0.61595        6.23791       -0.88751
C         -2.71325        5.55809       -1.77117
H         -4.44315        2.68859        2.80818
H         -3.82593        1.39626        1.80024
H         -2.71584        2.34146        2.79690
H         -2.47885        4.90093        2.29906
H         -3.29358        5.58552        0.89778
H         -4.24014        5.00329        2.25882
H         -5.54830        3.50857        0.60553
H         -4.53938        4.01922       -0.74381
H         -4.68720        2.31060       -0.35851
H          2.51340        4.30416       -0.34191
H          2.56549        3.60928       -1.96648
H          2.94912        5.30188       -1.72603
H          1.15573        5.74896       -3.54474
H          0.69609        4.04650       -3.58552
H         -0.51708        5.27575       -3.25889
H          0.77337        6.14919        0.18690
H          1.31714        6.97754       -1.27325
H         -0.38765        6.62381       -1.04624
H         -3.71332        5.89981       -1.50462
H         -2.25877        6.30877       -2.41731
H         -2.78179        4.61105       -2.30795
C          5.75477       -2.22072        1.94355
C          4.35629        0.73643        3.30275
C          6.08258        1.23409        1.53108
C          4.02391        2.60039        1.66274
C          5.95735       -2.63591       -1.56003
C          4.28995       -4.22129       -0.52815
C          3.81846       -3.10785       -2.72072
H          4.74784       -0.26282        3.47927
H          4.84981        1.41972        3.99326
H          3.29336        0.72158        3.54280
H          6.57945        1.98376        2.14641
H          6.56979        0.28092        1.71874
H          6.24533        1.49170        0.48508
H          2.99080        2.68320        1.99626
H          4.60546        3.31709        2.24217
H          4.07452        2.89755        0.61612
H          6.09042       -1.69257       -2.08859
H          6.49959       -2.57056       -0.62003
H          6.41945       -3.42512       -2.15256
H          4.74291       -5.06363       -1.05039
H          4.75405       -4.14562        0.45232
H          3.23383       -4.44477       -0.37883
H          2.79438       -3.47075       -2.64745
H          4.37447       -3.83726       -3.30929
H          3.81043       -2.16838       -3.27284
H          4.72861       -2.46171        2.22412
H          6.29070       -3.13806        1.70019
H          6.25749       -1.74492        2.78533
