45
-71.82152251
C          0.42249        1.46846        3.12518
P         -0.16965        0.75510        1.55492
P         -0.15442        0.80008       -1.55633
C          0.41733        1.54200       -3.12107
Cl         2.94807       -0.21234        1.61256
H          0.83082        2.45973        2.95025
H          0.80949        2.53796       -2.93617
Cl         3.06833        0.21778       -1.59960
C         -1.34062        1.82743        0.69760
C         -1.33676        1.84431       -0.67986
C         -2.25185        2.61462       -1.36800
C         -3.17002        3.37714       -0.66786
C         -3.17379        3.36019        0.71366
C         -2.25951        2.58042        1.39972
H         -2.24776        2.60993       -2.44579
H         -3.88512        3.98137       -1.20148
H         -3.89196        3.95098        1.25811
H         -2.26177        2.54828        2.47708
Pd         1.50989        0.39902        0.00175
H         -0.40587        1.60781       -3.82666
H          1.19929        0.83581        3.54521
H          1.20297        0.92826       -3.55247
C         -1.71802       -3.44499       -1.95642
C         -2.60274       -2.40909       -1.72779
C         -2.13366       -1.11171       -1.62665
C         -0.78768       -0.86312       -1.76044
C          0.09851       -1.89036       -1.98874
C         -0.36714       -3.18864       -2.08763
H         -2.08245       -4.45669       -2.02889
H         -3.65560       -2.61116       -1.61898
H         -2.80760       -0.29363       -1.42963
H          1.15122       -1.66747       -2.06710
H          0.32377       -3.99731       -2.26023
C         -1.85673       -3.44708        1.92340
C         -0.49199       -3.24202        1.97794
C          0.01330       -1.95848        1.88791
C         -0.84556       -0.89377        1.74367
C         -2.20553       -1.09156        1.68731
C         -2.71500       -2.37427        1.78013
H         -2.25297       -4.44717        1.98952
H          0.17831       -4.07894        2.08447
H          1.07579       -1.77441        1.91208
H         -2.86009       -0.24487        1.55711
H         -3.77934       -2.53579        1.73208
H         -0.39609        1.54003        3.83555
