72
-108.39850483
Cl         1.86820       -0.67989        2.66543
Cl        -1.04521        0.46139        2.75093
P         -1.12770        1.15498       -0.26106
P          2.26196       -0.11890       -0.40774
C          3.28192        1.47009       -0.22043
C          3.67916        1.64345        1.24654
C          4.52404        1.39399       -1.10105
C          3.31915       -1.68129       -0.15105
C          4.31686       -1.54021        0.99469
C          1.41901       -0.41541       -2.07225
C          1.47106        0.74438       -3.04507
C         -1.15254       -0.19143       -1.48302
C         -0.00022       -0.94681       -1.97360
C         -0.52301       -2.02517       -2.81432
C         -1.96827       -1.92044       -2.85324
C         -2.35421       -0.78561       -2.03713
C          2.42860        2.66837       -0.61652
H          4.19974        2.59126        1.39302
H          2.80379        1.64716        1.89607
H          5.07223        2.33712       -1.07299
H          4.26721        1.19239       -2.13991
C          2.33083       -2.79347        0.16447
H          5.11041       -0.83610        0.75163
H          4.79623       -2.49815        1.20130
H          2.01430       -1.22627       -2.50203
H          0.83403        1.55650       -2.70274
H          1.09208        0.44854       -4.02550
H          2.48192        1.12425       -3.18789
H          0.08263       -2.72035       -3.39839
H         -2.64523       -2.56320       -3.42017
Pd         0.53885        0.30203        1.14992
H         -3.37082       -0.44308       -1.83298
C          4.08631       -2.02128       -1.43542
H          3.83001       -1.22073        1.91348
H          2.83403       -3.76102        0.21822
H          1.85085       -2.61737        1.12639
H          1.55871       -2.85665       -0.60373
H          4.85358       -2.77077       -1.23418
H          3.43728       -2.44474       -2.20117
H          4.58191       -1.14699       -1.85406
H          4.34712        0.85816        1.58973
H          5.20619        0.61516       -0.76435
H          2.95618        3.60217       -0.41477
H          2.18158        2.66747       -1.67483
H          1.50408        2.68469       -0.04207
C         -2.78716        1.25461        0.45643
C         -3.19419        2.20861        1.35565
C         -4.52377        1.93121        1.67363
C         -4.87540        0.81777        0.95134
O         -3.81865        0.39246        0.19938
H         -2.58943        3.00538        1.75619
H         -5.15054        2.48081        2.35678
H         -5.84392        0.33337        0.96646
C         -0.74240        2.75951       -0.98476
C         -0.65064        3.91674       -0.25120
C         -0.34077        4.94322       -1.14451
C         -0.25692        4.36800       -2.38870
O         -0.49757        3.02621       -2.30417
H         -0.77619        4.00520        0.81590
H         -0.19535        5.98379       -0.90446
H         -0.03144        4.88761       -3.31170
Fe        -1.33295       -2.13119       -0.90197
C         -3.00600       -2.81340        0.04523
C         -2.21877       -1.99941        0.95067
C         -0.90876       -2.60182        1.06952
C         -0.87896       -3.78265        0.22615
C         -2.18339       -3.92638       -0.39498
H         -4.04670       -2.63139       -0.23311
H         -2.55112       -1.09103        1.45542
H         -0.11091       -2.23972        1.71992
H         -0.04862       -4.48621        0.13331
H         -2.49310       -4.73084       -1.06601
