111
-148.55727051
P         -2.68779       -1.88524       -0.36878
P          0.15888       -0.49150       -0.44766
C         -1.84333       -1.64737       -1.95642
C         -0.58051       -1.09501       -1.97858
C         -3.65882       -3.46007       -0.33330
C         -2.94235       -4.54154        0.44552
C         -2.45554       -2.01113       -3.13884
H         -3.45079       -2.42377       -3.11930
C         -1.79499       -1.82817       -4.34155
H         -2.27248       -2.11221       -5.26512
C         -0.52682       -1.28000       -4.36027
H         -0.01392       -1.13492       -5.29679
C          0.08023       -0.90716       -3.17469
H          1.06187       -0.46026       -3.17306
Pd        -1.06887       -1.51331        1.23262
Cl        -2.54729       -2.25566        2.74809
Cl         0.58511       -1.06629        2.68165
C         -5.00355       -3.01164        0.26807
C         -4.03197       -0.65781       -0.02974
H         -1.96328       -4.75978        0.01243
H         -2.78102       -4.23409        1.47942
H         -3.51982       -5.46872        0.46481
H         -4.96258       -3.14265        1.35830
H         -5.81729       -3.66680       -0.07865
H         -3.85011       -0.28303        0.98656
C         -5.30729       -1.52187       -0.06253
C         -4.01521        0.47661       -1.03140
H         -3.79465       -3.76680       -1.37804
H         -5.75412       -1.45394       -1.06393
H         -6.06332       -1.11390        0.62541
H         -3.07363        1.02709       -0.98958
H         -4.12732        0.09702       -2.04863
H         -4.82736        1.18396       -0.84830
C         -1.39220        3.73859        0.19940
C         -0.95436        2.97090        1.30859
C         -0.47300        1.69614        1.07083
C         -0.37016        1.20261       -0.20231
C         -0.68347        1.98192       -1.28451
C         -1.15481        3.27353       -1.11993
O         -2.10910        4.94613        0.41075
C         -1.05229        3.47054        2.75748
H         -0.18747        1.05218        1.88403
H         -0.57749        1.55698       -2.26725
C         -1.43837        4.12505       -2.36666
C          4.70538       -0.67334       -0.38532
C          4.04531        0.41637       -1.00886
C          2.66074        0.44069       -0.98963
C          1.94244       -0.59602       -0.45356
C          2.57288       -1.70248        0.05092
C          3.95552       -1.78796        0.07067
O          6.11085       -0.63128       -0.18463
C          4.80163        1.57913       -1.67042
H          2.11916        1.28410       -1.38255
H          1.96473       -2.49467        0.45239
C          4.61643       -3.05976        0.62491
C         -0.88115        4.99835        2.83181
C         -2.41259        3.05881        3.34130
C          0.06514        2.84759        3.62533
C         -2.86848        3.84955       -2.85568
C         -1.25754        5.62486       -2.07043
C         -0.44971        3.76935       -3.50069
C         -3.51913        4.77303        0.48042
H          0.06288        5.30095        2.37994
H         -1.68203        5.51325        2.30707
H         -0.88910        5.34376        3.86529
H         -2.52982        1.97550        3.31691
H         -2.50863        3.38568        4.37629
H         -3.23251        3.49283        2.77396
H         -0.07941        1.77703        3.76253
H          1.04270        3.00612        3.17085
H          0.08016        3.29710        4.61787
H         -3.09810        4.43937       -3.74269
H         -2.99318        2.79707       -3.10941
H         -3.60100        4.09426       -2.08998
H         -1.97672        5.97386       -1.33383
H         -0.25911        5.82112       -1.68103
H         -1.39364        6.22173       -2.97194
H          0.58023        3.83510       -3.15082
H         -0.61780        2.76393       -3.88365
H         -0.56216        4.45422       -4.34088
H         -3.99898        5.34833       -0.31110
H         -3.77925        3.71926        0.37220
H         -3.88531        5.14047        1.43896
C          6.50233       -0.03318        1.04488
C          5.05424        2.67951       -0.62865
C          6.13474        1.10224       -2.27472
C          3.97196        2.17959       -2.82877
C          4.82045       -2.90410        2.13965
C          3.72118       -4.29450        0.37363
C          5.96301       -3.33549       -0.06845
H          5.57808        3.52532       -1.07322
H          4.11295        3.04349       -0.21730
H          5.65504        2.30942        0.19854
H          5.96630        0.29333       -2.98484
H          6.64032        1.91344       -2.79802
H          6.81052        0.73544       -1.50627
H          3.66294        1.40278       -3.52776
H          3.08063        2.68878       -2.46526
H          4.55583        2.91471       -3.38223
H          5.46789       -2.06040        2.36579
H          3.86762       -2.73311        2.64020
H          5.27148       -3.79907        2.56737
H          3.44757       -4.36725       -0.67864
H          4.24164       -5.21176        0.64820
H          2.80754       -4.25730        0.96497
H          6.68171       -2.54453        0.13021
H          5.83172       -3.40385       -1.14783
H          6.39900       -4.27129        0.28036
H          7.13896        0.82882        0.84632
H          5.62480        0.28441        1.60954
H          7.07437       -0.74942        1.63444
