171
-217.84492633
P         -1.60079        0.38954       -0.37160
P          1.60411       -0.32668       -0.26894
C         -0.84287        1.44722       -1.61370
C          0.98349       -1.21191       -1.70100
C          0.01769        0.92341       -2.57237
C          0.67981        1.80922       -3.44451
C          0.42753        3.16772       -3.35104
C         -0.45160        3.66474       -2.41265
C         -1.07836        2.79873       -1.53880
C          1.22715       -2.55966       -1.79716
C          0.72730       -3.27956       -2.86474
C         -0.03001       -2.64136       -3.82444
C         -0.28765       -1.28273       -3.74446
C          0.24321       -0.54452       -2.66933
Cl         1.52113        0.40377        2.88292
Cl        -1.75409       -0.52626        2.72713
C         -1.09808       -0.62337       -4.80511
C          1.65181        1.31857       -4.46020
H         -0.64271        4.72380       -2.35408
H         -1.75513        3.18086       -0.79223
H          1.81278       -3.04940       -1.03585
H          0.92687       -4.33553       -2.94580
H          0.93440        3.83972       -4.02297
H         -0.43046       -3.20072       -4.65307
C         -3.57265       -3.39364       -1.86836
C         -2.67171       -3.47847       -0.81382
C         -2.04663       -2.30854       -0.40381
C         -2.33296       -1.11289       -1.01427
C         -3.23552       -1.04290       -2.04671
C         -3.87691       -2.19152       -2.49571
H         -4.06667       -4.28437       -2.20754
H         -1.33992       -2.32227        0.40745
H         -3.44233       -0.08211       -2.48666
C         -4.69776        2.62187        2.08055
C         -3.36205        2.98835        2.19821
C         -2.43352        2.31509        1.41601
C         -2.82841        1.30481        0.57481
C         -4.14995        0.94590        0.48264
C         -5.11634        1.60528        1.23089
H         -5.43677        3.13048        2.67045
H         -1.38872        2.56956        1.47509
H         -4.41996        0.13510       -0.16975
C          4.25086       -2.92197        2.35355
C          2.89273       -3.21203        2.28006
C          2.10485       -2.43461        1.44125
C          2.65369       -1.39706        0.72934
C          3.99380       -1.11798        0.82417
C          4.82403       -1.87993        1.63374
H          4.87467       -3.51365        2.99526
H          1.04717       -2.62206        1.36454
H          4.39578       -0.28342        0.27731
C          3.92881        3.41222       -1.28576
C          2.85826        3.50935       -0.40578
C          2.15222        2.34971       -0.11386
C          2.49510        1.16121       -0.70765
C          3.54083        1.08488       -1.59418
C          4.28807        2.21712       -1.89689
H          4.51434        4.29086       -1.48381
H          1.33544        2.36080        0.58648
H          3.77472        0.13033       -2.03443
Pd        -0.06231        0.01738        1.34655
C         -0.97263       -5.29963       -0.64395
C         -2.33428       -4.80990       -0.12727
C         -3.39793       -5.88505       -0.42538
C         -2.27082       -4.61477        1.40160
H         -0.67913       -6.23047       -0.15905
H         -1.01032       -5.47498       -1.71881
H         -0.19854       -4.55741       -0.45502
H         -3.18939       -6.79942        0.13005
H         -4.39124       -5.53969       -0.13902
H         -3.41390       -6.14527       -1.48328
H         -3.20727       -4.20208        1.77608
H         -2.09368       -5.56335        1.90817
H         -1.46826       -3.93780        1.68867
C         -6.29347       -2.58759       -3.01718
C         -4.93653       -2.15989       -3.60639
C         -4.53450       -3.13070       -4.73266
C         -5.08983       -0.74866       -4.20653
H         -7.07451       -2.56239       -3.77686
H         -6.24894       -3.59988       -2.61696
H         -6.58882       -1.92134       -2.20714
H         -3.55711       -2.87207       -5.13744
H         -4.48481       -4.15781       -4.37356
H         -5.25596       -3.09993       -5.54899
H         -5.41549       -0.03389       -3.45103
H         -4.15034       -0.39731       -4.63135
H         -5.83380       -0.74601       -5.00303
C         -4.01286        4.57307        4.08072
C         -2.88587        4.10164        3.14162
C         -2.40908        5.29814        2.30064
C         -1.72324        3.57830        4.00910
H         -4.40213        3.74308        4.67015
H         -3.64673        5.33002        4.77425
H         -4.83551        5.01525        3.51929
H         -3.22320        5.68970        1.69101
H         -2.04372        6.10392        2.93702
H         -1.60282        5.00682        1.62952
H         -2.02726        2.69101        4.56393
H         -0.85846        3.31184        3.40333
H         -1.40184        4.33266        4.72688
C         -6.85052        0.10441        0.12760
C         -6.60172        1.22404        1.15828
C         -7.42664        2.45658        0.74425
C         -7.06349        0.72766        2.54026
H         -7.90981       -0.14697        0.07687
H         -6.53647        0.41364       -0.86918
H         -6.30981       -0.80339        0.39490
H         -8.48448        2.20768        0.66122
H         -7.33091        3.26155        1.47185
H         -7.09243        2.83613       -0.22119
H         -6.95260        1.50399        3.29643
H         -8.11157        0.42964        2.51819
H         -6.47354       -0.13269        2.85576
C          1.14004       -3.68712        4.00529
C          2.23163       -4.31611        3.11745
C          3.24813       -5.03186        4.02730
C          1.59913       -5.35671        2.17747
H          0.36542       -3.21002        3.40644
H          0.66097       -4.44103        4.62948
H          1.56745       -2.92716        4.65891
H          2.75904       -5.80573        4.61884
H          4.03087       -5.51188        3.44023
H          3.71407       -4.33208        4.72082
H          0.83612       -4.90125        1.54991
H          2.35246       -5.79578        1.52369
H          1.12942       -6.16143        2.74281
C          6.94091       -1.62604        0.31468
C          6.31474       -1.52265        1.71802
C          7.07661       -2.46850        2.66563
C          6.45911       -0.08162        2.24327
H          8.00400       -1.38764        0.34278
H          6.83079       -2.63482       -0.08270
H          6.46411       -0.93866       -0.38289
H          8.13273       -2.20270        2.71003
H          6.67988       -2.41146        3.67909
H          7.01066       -3.50168        2.32509
H          5.98291        0.63422        1.57412
H          5.99383        0.01829        3.22364
H          7.50861        0.19696        2.33636
C          2.33984        5.92848       -0.84324
C          2.51597        4.85486        0.24730
C          3.65862        5.25788        1.19540
C          1.20747        4.77049        1.05699
H          1.56513        5.63456       -1.55049
H          2.05209        6.88439       -0.40591
H          3.26134        6.08464       -1.40239
H          3.80151        4.50210        1.96758
H          4.59856        5.36520        0.65489
H          3.44292        6.20677        1.68617
H          0.94888        5.74179        1.47832
H          0.38112        4.45087        0.42296
H          1.30031        4.06833        1.88515
C          5.44494        3.26418       -3.87522
C          5.52550        2.15957       -2.80379
C          5.64124        0.79913       -3.51943
C          6.78172        2.36948       -1.93938
H          4.53895        3.16191       -4.47116
H          5.44069        4.25677       -3.42716
H          6.29850        3.21231       -4.55096
H          6.49955        0.78736       -4.19106
H          5.77524       -0.01255       -2.80492
H          4.75194        0.59200       -4.11404
H          6.85231        1.60162       -1.16918
H          7.68608        2.32455       -2.54590
H          6.75806        3.33878       -1.44223
H         -0.47901       -0.36788       -5.66599
H          2.55909        1.92298       -4.44834
H         -1.56193        0.29322       -4.43796
H         -1.89535       -1.28035       -5.15292
H          1.22787        1.37160       -5.46391
H          1.94399        0.28515       -4.26942
