105
-153.07078708
Cl        -0.89666        1.99432       -2.88654
Pd         0.08394        1.55880       -0.91163
P          1.34163        0.73631        0.87160
N          0.62256       -0.49947        1.89005
C          0.03031       -1.73223        1.65963
C         -0.09663       -2.32429        0.37921
C         -0.82178       -3.52559        0.23873
C         -0.95257       -4.13234       -1.13913
C         -1.48910       -5.57248       -1.15749
C         -2.64906       -5.74181       -0.17200
C         -2.19687       -5.40971        1.25789
C         -1.39292       -4.13818        1.35598
C         -1.21050       -3.56775        2.60861
C         -0.51542       -2.39598        2.75815
H         -0.41245       -1.95262        3.73335
H         -1.64241       -4.05022        3.46910
H         -3.06640       -5.33152        1.92314
H         -3.46944       -5.07267       -0.46009
H         -1.79647       -5.86152       -2.17244
H         -1.60730       -3.48748       -1.73700
C          0.67105       -1.83677       -0.79230
C         -0.00139       -1.21751       -1.88061
C          0.71059       -0.99594       -3.06275
C          2.02071       -1.38115       -3.18236
C          2.67900       -2.02720       -2.14319
C          4.08429       -2.51941       -2.36956
C          4.43168       -3.73153       -1.49414
C          4.11219       -3.43647       -0.02568
C          2.63127       -3.06635        0.17307
C          2.00612       -2.25740       -0.94202
H          2.04331       -3.98368        0.29694
H          4.74455       -2.60960        0.31570
H          5.48606       -4.01718       -1.61766
H          4.78410       -1.70149       -2.16660
H          2.55059       -1.19914       -4.10194
H          0.21671       -0.49784       -3.87838
N         -1.33961       -0.81179       -1.80438
P         -1.83814        0.20998       -0.45291
C         -2.78991       -0.72095        0.74773
C         -3.53841       -1.77980        0.29338
C         -4.33345       -2.48873        1.17595
C         -4.38028       -2.13780        2.51824
C         -3.64089       -1.04442        2.95002
C         -2.85039       -0.33397        2.06512
H         -2.27766        0.51471        2.39889
H         -3.68606       -0.75449        3.98587
C         -5.23492       -2.89797        3.47121
H         -4.91990       -3.32129        0.82713
H         -3.49210       -2.04775       -0.75026
C         -2.96959        1.49980       -0.99091
C         -2.93207        2.73496       -0.38754
C         -3.80810        3.72396       -0.79559
C         -4.73521        3.47684       -1.79907
C         -4.75931        2.22136       -2.39159
C         -3.88156        1.23327       -1.98334
H         -3.90561        0.25460       -2.43507
H         -5.46747        2.02322       -3.17793
C         -5.65680        4.55151       -2.26078
H         -3.77341        4.69795       -0.33814
H         -2.21458        2.92457        0.39496
H         -1.69349       -0.34681       -2.63037
H          0.80690       -0.24107        2.85192
C          1.29991        2.23940        1.85720
C          2.43217        2.98606        2.07987
C          2.35069        4.15390        2.81553
C          1.13320        4.58573        3.32479
C          0.00185        3.81450        3.09437
C          0.08674        2.64638        2.35871
H         -0.78933        2.04948        2.16611
H         -0.94603        4.13489        3.49188
C          1.05086        5.83354        4.13340
H          3.23475        4.74156        2.99502
H          3.37333        2.65961        1.66891
C          3.07264        0.35898        0.59502
C          3.70076        0.68313       -0.58353
C          5.05306        0.43989       -0.73328
C          5.78998       -0.11683        0.30281
C          5.14127       -0.42896        1.49003
C          3.78632       -0.18823        1.63508
H          3.28037       -0.42074        2.55883
H          5.70168       -0.86662        2.29841
C          7.23782       -0.41534        0.12564
H          5.54685        0.68844       -1.65720
H          3.13589        1.14569       -1.37527
Cl         1.77424        3.01459       -1.15251
H         -1.59513       -6.23498        1.65687
H         -0.68159       -6.26457       -0.88737
H         -3.06392       -6.75829       -0.22684
H          0.02472       -4.09336       -1.63640
H          4.38656       -4.29097        0.60871
H          2.50452       -2.51560        1.11298
H          4.21673       -2.76337       -3.43136
H          3.84791       -4.59933       -1.82616
H         -4.79010       -2.91828        4.46715
H         -6.22353       -2.44416        3.55232
H         -5.36407       -3.93141        3.14636
H         -6.59217        4.13421       -2.63628
H         -5.90275        5.23568       -1.44748
H         -5.20109        5.13267       -3.06356
H          1.76414        6.57892        3.77888
H          0.05530        6.27578        4.07609
H          1.26915        5.63050        5.18270
H          7.71477        0.32241       -0.52109
H          7.76268       -0.40574        1.08189
H          7.37765       -1.39887       -0.32528
