105
-153.07043806
Cl        -0.73776        1.94696       -2.90127
Pd         0.08058        1.58957       -0.83750
P          1.31565        0.68921        0.92329
N          0.70942       -0.60509        1.94355
C          0.05948       -1.80347        1.68959
C         -0.10032       -2.35220        0.39375
C         -0.87841       -3.51616        0.22437
C         -1.03878       -4.08111       -1.16784
C         -1.63838       -5.49524       -1.22137
C         -2.80086       -5.63934       -0.23486
C         -2.32867       -5.36616        1.20102
C         -1.46815       -4.13491        1.32874
C         -1.24840       -3.61221        2.59638
C         -0.50107       -2.47705        2.77442
H         -0.36890       -2.06842        3.76117
H         -1.69181       -4.10254        3.44646
H         -3.19125       -5.26697        1.87251
H         -3.59174       -4.92685       -0.50070
H         -1.96209       -5.74352       -2.24202
H         -1.66594       -3.39300       -1.74672
C          0.70075       -1.87258       -0.75835
C          0.06400       -1.24165       -1.85986
C          0.80883       -1.02093       -3.02135
C          2.11644       -1.42203       -3.11100
C          2.74047       -2.08047       -2.05884
C          4.14584       -2.58663       -2.25113
C          4.45957       -3.80194       -1.36775
C          4.10948       -3.50221        0.09277
C          2.62860       -3.11464        0.25699
C          2.03546       -2.30534       -0.87528
H          2.02730       -4.02419        0.37420
H          4.74395       -2.68305        0.44940
H          5.51330       -4.09928       -1.46687
H          4.84848       -1.77587       -2.03026
H          2.67132       -1.24232       -4.01617
H          0.34122       -0.51417       -3.84705
N         -1.27564       -0.83563       -1.82303
P         -1.82435        0.20325       -0.50654
C         -2.75712       -0.68966        0.73501
C         -3.57886       -1.70810        0.31603
C         -4.36301       -2.38079        1.23613
C         -4.33568       -2.02589        2.57801
C         -3.50670       -0.98601        2.97792
C         -2.72570       -0.31262        2.05637
H         -2.08165        0.49241        2.36658
H         -3.47126       -0.71140        4.01833
C         -5.14251       -2.77836        3.57767
H         -4.99817       -3.18917        0.91691
H         -3.59802       -1.97423       -0.72908
C         -2.96316        1.45822       -1.10980
C         -2.98961        2.70060       -0.52092
C         -3.87070        3.66067       -0.98353
C         -4.73965        3.37765       -2.02858
C         -4.69998        2.11585       -2.60637
C         -3.81702        1.15694       -2.14335
H         -3.79322        0.17337       -2.58419
H         -5.36264        1.88973       -3.42419
C         -5.66602        4.42138       -2.54809
H         -3.88526        4.63998       -0.53646
H         -2.31814        2.91885        0.29405
H         -1.60065       -0.37396       -2.66247
H          0.91476       -0.36869        2.90692
C          1.28510        2.15744        1.96333
C          2.44526        2.78983        2.34251
C          2.38462        3.92911        3.12342
C          1.16092        4.44102        3.53345
C         -0.00034        3.79573        3.13065
C          0.06397        2.65592        2.35006
H         -0.83553        2.16040        2.02496
H         -0.95557        4.19460        3.42665
C          1.09371        5.68600        4.34762
H          3.29057        4.43292        3.41429
H          3.39501        2.39956        2.01656
C          3.03161        0.39716        0.49492
C          3.54225        0.77690       -0.72339
C          4.88568        0.59578       -0.99368
C          5.73064        0.04562       -0.03939
C          5.19899       -0.32461        1.18817
C          3.85259       -0.14784        1.45362
H          3.43676       -0.42737        2.40886
H          5.84479       -0.75633        1.93367
C          7.17040       -0.18520       -0.34032
H          5.28666        0.88523       -1.95000
H          2.89236        1.22739       -1.45511
Cl         1.62503        3.21424       -0.92445
H         -1.76298       -6.22790        1.57486
H         -0.86119       -6.22912       -0.97354
H         -3.26083       -6.63453       -0.31469
H         -0.06142       -4.07215       -1.66655
H          4.35846       -4.35994        0.73325
H          2.48971       -2.55589        1.19044
H          4.30201       -2.83145       -3.30949
H          3.87402       -4.66341       -1.71286
H         -6.03870       -3.20233        3.12253
H         -4.56245       -3.59757        4.00486
H         -5.46131       -2.12950        4.39461
H         -5.18876        5.00303       -3.33788
H         -6.57219        3.97458       -2.95951
H         -5.96648        5.11022       -1.75734
H          0.21418        5.68765        4.99297
H          1.97256        5.78712        4.98595
H          1.04145        6.56581        3.70489
H          7.78527       -0.04175        0.54929
H          7.33220       -1.20194       -0.70123
H          7.52934        0.50456       -1.10541
