115
-277.94191417
P         -2.01762       -0.28394       -0.12580
P          1.61998        0.77367       -0.21283
C         -1.87879       -2.05780        0.17654
C         -0.67221       -2.62516        0.52935
H          0.16156       -2.00537        0.81379
C         -0.51476       -3.99359        0.45901
H          0.44804       -4.45221        0.62556
C         -1.56430       -4.79440        0.04200
C         -2.80719       -4.22359       -0.18029
H         -3.61672       -4.84959       -0.51920
C         -2.96748       -2.85563       -0.10115
H         -3.91601       -2.40402       -0.34770
C         -3.58807        0.33460        0.50920
C         -4.27560       -0.33130        1.49723
H         -3.86939       -1.23843        1.91527
C         -5.46347        0.18273        1.97395
H         -6.00564       -0.31746        2.76089
C         -5.97165        1.36076        1.45956
C         -5.27134        2.02614        0.47339
H         -5.67064        2.95348        0.09440
C         -4.08199        1.51255       -0.00234
H         -3.53687        2.03001       -0.77455
C         -1.79932        0.24744       -1.85986
C         -1.26634        1.52173       -1.94714
H         -0.98087        2.03388       -1.04355
C         -0.94058        2.09064       -3.17858
C         -1.37717        1.43853       -4.32536
H         -1.17129        1.87325       -5.28920
C         -1.91383        0.16946       -4.24715
H         -2.12533       -0.37024       -5.15463
C         -2.02459       -0.49514       -3.02610
C          1.38191        0.23870       -1.94469
C          0.84372       -1.03200       -1.99727
H          0.57546       -1.52156       -1.07916
C          0.48404       -1.62584       -3.20584
C          0.89094       -0.99835       -4.37671
H          0.66272       -1.45325       -5.32609
C          1.43278        0.27078       -4.33601
H          1.62382        0.79109       -5.25933
C          1.57668        0.95995       -3.13129
C         -2.04333       -2.00675       -3.06222
H         -2.70477       -2.33385       -3.87229
H         -2.52295       -2.37671       -2.15922
C         -0.61717       -2.65258       -3.23430
H         -0.43046       -3.40318       -2.45908
H         -0.55875       -3.21461       -4.17315
C          0.15701        3.11723       -3.27420
H          0.02759        3.86497       -2.48518
H          0.03943        3.68520       -4.20407
C          1.58987        2.47119       -3.20480
H          2.18430        2.78342       -4.07153
H          2.14538        2.87529       -2.36210
C          2.17016        2.48425       -0.16478
C          1.25276        3.49451        0.02543
C          3.46451        2.77155       -0.54463
C          1.59699        4.79338       -0.28545
C          3.80099        4.06985       -0.87626
C          2.84735        5.07590       -0.81064
C          2.92726       -0.21374        0.54636
C          3.63215       -1.09981       -0.23553
C          3.23958       -0.07294        1.87784
C          4.64482       -1.85331        0.31993
H          3.39245       -1.20125       -1.28131
C          4.25297       -0.82342        2.43518
H          2.68970        0.62834        2.48292
C          4.95958       -1.71985        1.65887
H          5.20573       -2.55622       -0.27704
H          4.51138       -0.72653        3.47792
Pd        -0.26887        0.60215        1.17648
Cl        -1.80316        0.27993        2.79017
Cl         1.03598        1.85415        2.52240
H          4.76694        4.29119       -1.30102
H          4.17304        1.97000       -0.68458
H          0.86431        5.58476       -0.24882
H          0.25227        3.26506        0.35332
C         -2.47454       -7.12159       -0.38584
C         -1.24525       -6.17181       -0.48177
C         -0.75700       -5.96528       -1.94987
F         -2.08860       -8.37145       -0.68646
F         -2.93227       -7.06925        0.87381
F         -3.42955       -6.71008       -1.23128
F         -0.24614       -6.71443        0.21835
F          0.39202       -5.27805       -1.89670
F         -0.57007       -7.15240       -2.54244
F         -1.66460       -5.23436       -2.61150
C         -8.34604        0.87196        2.13070
C         -7.24276        1.96338        2.00211
C         -6.92785        2.65354        3.35982
F         -8.43833        0.24982        0.94583
F         -7.99845       -0.00848        3.07960
F         -9.51344        1.45841        2.43729
F         -7.69782        2.90028        1.16547
F         -6.03270        3.62332        3.11823
F         -8.05387        3.17739        3.86707
F         -6.40285        1.75185        4.20259
C          5.70209       -4.05463        2.14684
C          6.05932       -2.54550        2.27563
C          7.41392       -2.19233        1.59605
F          6.62900       -4.78666        2.78346
F          4.49959       -4.23244        2.71490
F          5.64424       -4.38924        0.85006
F          6.17229       -2.26504        3.57685
F          7.61605       -0.87637        1.76202
F          8.40000       -2.88981        2.18034
F          7.34392       -2.47809        0.28820
C          4.47233        6.78142       -1.75468
C          2.98676        6.33744       -1.62629
C          2.32651        6.02333       -3.00745
F          4.52097        7.98823       -2.33994
F          4.98607        6.84653       -0.51744
F          5.15113        5.88126       -2.47918
F          2.30368        7.33341       -1.05695
F          1.02603        5.78822       -2.78571
F          2.48136        7.06573       -3.83448
F          2.88506        4.91750       -3.51839
