105
-153.06907623
Cl        -0.49521        1.79255       -3.06670
Pd         0.33717        1.27988       -1.03641
P          1.44336        0.55276        0.90824
N          1.31167       -1.03601        1.64704
C          0.27168       -1.96484        1.53754
C         -0.17124       -2.46420        0.28531
C         -1.17944       -3.44822        0.25030
C         -1.61535       -3.99601       -1.08803
C         -2.44794       -5.28517       -1.01019
C         -3.49839       -5.19367        0.10029
C         -2.82752       -4.96658        1.46328
C         -1.73768       -3.92416        1.43948
C         -1.26516       -3.44303        2.65385
C         -0.27768       -2.49449        2.70506
H          0.07554       -2.13270        3.65486
H         -1.69074       -3.82496        3.56642
H         -3.57633       -4.67807        2.21208
H         -4.18086       -4.36177       -0.11405
H         -2.92245       -5.50299       -1.97744
H         -2.18997       -3.21997       -1.60662
C          0.54534       -2.11837       -0.96599
C         -0.15810       -1.49317       -2.03236
C          0.49145       -1.33857       -3.26042
C          1.78588       -1.75395       -3.43115
C          2.48724       -2.37103       -2.40294
C          3.89264       -2.84077       -2.67955
C          4.34997       -3.96767       -1.74265
C          4.05211       -3.61116       -0.28362
C          2.55346       -3.34078       -0.06366
C          1.86708       -2.56565       -1.16641
H          2.02333       -4.29196        0.06502
H          4.63058       -2.72248       -0.00261
H          5.41891       -4.18346       -1.88188
H          4.57301       -1.98553       -2.59477
H          2.27481       -1.60482       -4.37896
H         -0.02910       -0.84748       -4.06375
N         -1.44854       -0.97000       -1.87339
P         -1.69232        0.17831       -0.55662
C         -2.56874       -0.48301        0.85136
C         -3.62522       -1.33985        0.66102
C         -4.34481       -1.78928        1.75382
C         -4.00871       -1.37921        3.03757
C         -2.95899       -0.48480        3.20123
C         -2.24382       -0.03483        2.10665
H         -1.43057        0.66071        2.22102
H         -2.70270       -0.14509        4.19009
C         -4.78320       -1.86062        4.21422
H         -5.17232       -2.46382        1.61542
H         -3.88143       -1.64959       -0.33965
C         -2.67345        1.59500       -1.07207
C         -2.47884        2.79962       -0.43728
C         -3.23067        3.89954       -0.80709
C         -4.18255        3.79781       -1.81267
C         -4.37970        2.56662       -2.42372
C         -3.62642        1.46731       -2.05348
H         -3.78537        0.50965       -2.52164
H         -5.12798        2.47433       -3.19230
C         -5.00754        4.97586       -2.19863
H         -3.08080        4.84560       -0.31553
H         -1.73731        2.87649        0.34283
H         -1.81854       -0.50381       -2.69143
H          1.76129       -0.93716        2.54820
C          0.82305        1.82012        2.02220
C          0.71871        3.11658        1.57422
C          0.20279        4.09367        2.40476
C         -0.20918        3.77970        3.69262
C         -0.06731        2.47266        4.13856
C          0.44867        1.49746        3.30519
H          0.53980        0.47991        3.64640
H         -0.36791        2.22231        5.14166
C         -0.75021        4.83455        4.59360
H          0.11816        5.10899        2.05664
H          1.05246        3.36077        0.57801
C          3.20847        0.81110        0.70964
C          3.89480        0.02493       -0.18161
C          5.25705        0.19581       -0.34772
C          5.94222        1.15242        0.38837
C          5.23026        1.94261        1.28076
C          3.86787        1.76925        1.44285
H          3.31590        2.38087        2.13759
H          5.74937        2.69790        1.84576
C          7.40331        1.35830        0.18862
H          5.79628       -0.40864       -1.05666
H          3.35205       -0.70324       -0.76016
Cl         2.34455        2.04764       -1.70634
H         -2.39964       -5.90897        1.82554
H         -1.78365       -6.13542       -0.81080
H         -4.12803       -6.09455        0.11779
H         -0.72486       -4.16295       -1.70717
H          4.40352       -4.40810        0.38694
H          2.41792       -2.80355        0.88103
H          3.96182       -3.16580       -3.72562
H          3.82478       -4.89484       -2.00477
H         -5.60706       -1.18225        4.43994
H         -5.20238       -2.85106        4.03114
H         -4.14992       -1.92882        5.09994
H         -5.27476        4.93919       -3.25565
H         -5.93066        5.00938       -1.61838
H         -4.46764        5.90807       -2.02674
H          0.05369        5.31884        5.14961
H         -1.27830        5.60281        4.02699
H         -1.45274        4.41424        5.31465
H          7.58651        2.07402       -0.61392
H          7.87529        1.74035        1.09489
H          7.90007        0.42327       -0.07424
