171
-217.84347251
P         -1.60014        0.35161       -0.49357
P          1.61681       -0.37986       -0.22255
C         -0.78600        1.32672       -1.76072
C          1.03758       -1.34956       -1.61737
C          0.08723        0.72089       -2.65683
C          0.77129        1.52950       -3.58524
C          0.53251        2.89368       -3.60079
C         -0.35639        3.47070       -2.71883
C         -1.01015        2.68129       -1.79342
C          1.28248       -2.70130       -1.61710
C          0.78604       -3.49767       -2.62977
C          0.02694       -2.93098       -3.63149
C         -0.23233       -1.57028       -3.64916
C          0.30118       -0.75303       -2.63458
Cl         1.23080        0.26366        3.03669
Cl        -1.90050       -0.58115        2.59571
C         -1.05535       -0.99559       -4.74760
C          1.73880        0.94738       -4.55564
H         -0.53790        4.53263       -2.74869
H         -1.70089        3.12415       -1.09438
H          1.86526       -3.13698       -0.82197
H          0.98557       -4.55682       -2.63156
H          1.05511        3.50646       -4.31588
H         -0.37525       -3.54935       -4.41620
C         -3.81719       -3.26993       -2.04704
C         -2.81330       -3.44796       -1.10320
C         -2.14118       -2.32048       -0.64912
C         -2.45180       -1.08005       -1.14697
C         -3.43533       -0.92150       -2.09226
C         -4.15404       -2.01882       -2.55115
H         -4.35735       -4.13463       -2.38341
H         -1.37252       -2.39863        0.10006
H         -3.65329        0.06758       -2.45966
C         -4.40933        2.78589        2.11332
C         -3.05912        3.11518        2.08986
C         -2.22876        2.38731        1.24762
C         -2.72809        1.36017        0.48569
C         -4.06114        1.03776        0.53663
C         -4.93148        1.74372        1.35604
H         -5.06894        3.35097        2.74282
H         -1.17652        2.60786        1.19637
H         -4.42375        0.21702       -0.05674
C          4.32221       -2.76120        2.53856
C          2.99238       -3.14796        2.41172
C          2.18571       -2.43056        1.53855
C          2.68792       -1.35986        0.84219
C          3.99940       -0.98423        0.99003
C          4.84745       -1.68037        1.83943
H          4.96159       -3.30958        3.20298
H          1.15000       -2.69794        1.41361
H          4.36422       -0.12991        0.44711
C          3.90963        3.38520       -1.21337
C          2.86848        3.45592       -0.29547
C          2.15248        2.29491       -0.03682
C          2.46936        1.12468       -0.67952
C          3.50210        1.06829       -1.58282
C          4.24950        2.20583       -1.86543
H          4.49136        4.26481       -1.41479
H          1.35973        2.29368        0.69188
H          3.73192        0.12277       -2.04412
Pd        -0.13495       -0.11672        1.28659
C         -1.29505       -4.83719        0.38929
C         -2.50727       -4.85093       -0.56191
C         -2.19219       -5.79842       -1.73458
C         -3.73229       -5.36962        0.21174
H         -1.06863       -5.84316        0.74222
H         -0.40950       -4.45487       -0.11699
H         -1.48811       -4.21773        1.26484
H         -1.93023       -6.79254       -1.37278
H         -3.04575       -5.90336       -2.40293
H         -1.35436       -5.42098       -2.31949
H         -4.60744       -5.43495       -0.43391
H         -3.54375       -6.36137        0.62238
H         -3.97545       -4.70185        1.03808
C         -6.05055       -3.12988       -3.83927
C         -5.30313       -1.81347       -3.55046
C         -4.74321       -1.26928       -4.87590
C         -6.30940       -0.80510       -2.96494
H         -5.38754       -3.86784       -4.29045
H         -6.46861       -3.55149       -2.92528
H         -6.87464       -2.96217       -4.53265
H         -5.54543       -1.08035       -5.58908
H         -4.20518       -0.33439       -4.72302
H         -4.05807       -1.98620       -5.32665
H         -6.68310       -1.14993       -2.00094
H         -5.84943        0.17139       -2.82005
H         -7.16259       -0.67336       -3.63016
C         -1.12784        3.84085        3.53932
C         -2.48115        4.26296        2.93058
C         -3.42331        4.64328        4.09008
C         -2.28294        5.48887        2.02403
H         -1.23356        2.92002        4.11255
H         -0.37669        3.67258        2.77026
H         -0.74270        4.61193        4.20621
H         -3.64893        3.77435        4.70806
H         -2.96468        5.39758        4.72937
H         -4.36075        5.05842        3.72147
H         -1.63169        5.25043        1.18463
H         -3.23623        5.82574        1.61715
H         -1.83741        6.31678        2.57525
C         -6.54699       -0.15499        1.66886
C         -6.41680        1.35590        1.39122
C         -7.05291        1.68963        0.03109
C         -7.17947        2.11574        2.49379
H         -7.59372       -0.44804        1.74777
H         -6.09824       -0.74873        0.87363
H         -6.05093       -0.41764        2.60297
H         -6.55251        1.15515       -0.77459
H         -8.10746        1.41501        0.01347
H         -6.97644        2.75626       -0.17917
H         -7.17254        3.18984        2.31000
H         -8.22130        1.79772        2.53233
H         -6.73919        1.92852        3.47306
C          2.04146       -5.45237        2.20417
C          2.39060       -4.32542        3.19145
C          1.11487       -3.85767        3.92052
C          3.37297       -4.87557        4.24327
H          2.93478       -5.80275        1.68748
H          1.59335       -6.30105        2.72059
H          1.33632       -5.10658        1.45017
H          0.69293       -4.66144        4.52340
H          1.33550       -3.01919        4.58069
H          0.34719       -3.53490        3.21881
H          4.27108       -5.27553        3.77320
H          3.66725       -4.09738        4.94730
H          2.91528       -5.68344        4.81414
C          6.32976        0.23887        2.47334
C          6.30536       -1.21969        1.97746
C          6.99634       -1.30974        0.60402
C          7.08748       -2.09045        2.97898
H          7.35322        0.58926        2.60559
H          5.83856        0.90702        1.76675
H          5.81500        0.32813        3.42972
H          6.50213       -0.67391       -0.12953
H          8.03797       -0.99589        0.66937
H          6.97409       -2.33244        0.22814
H          7.11321       -3.13149        2.65755
H          8.11826       -1.74723        3.06684
H          6.63918       -2.04507        3.97131
C          1.06442        5.13758        0.12871
C          2.51265        4.74187        0.46242
C          3.43921        5.91071        0.07690
C          2.64899        4.48965        1.97607
H          0.37184        4.33689        0.38185
H          0.76614        6.03031        0.67802
H          0.95932        5.34494       -0.93560
H          3.16994        6.81360        0.62491
H          4.47868        5.68086        0.31026
H          3.36437        6.13623       -0.98676
H          2.39859        5.38442        2.54562
H          1.98976        3.68851        2.30675
H          3.66998        4.20311        2.22726
C          5.63351        0.79884       -3.47405
C          5.46781        2.17473       -2.79927
C          6.73501        2.46757       -1.97462
C          5.30779        3.24242       -3.89797
H          5.80046        0.01589       -2.73463
H          4.75238        0.53817       -4.05905
H          6.48949        0.79993       -4.14875
H          6.68546        3.45252       -1.51164
H          6.85613        1.73154       -1.18005
H          7.62545        2.43705       -2.60227
H          4.39530        3.07771       -4.46941
H          5.25988        4.24498       -3.47501
H          6.14831        3.21596       -4.59128
H         -1.83030       -1.69694       -5.05749
H          2.62840        1.57213       -4.63693
H         -0.44109       -0.77189       -5.62056
H         -1.54789       -0.07427       -4.43336
H          1.29546        0.86952       -5.54921
H          2.06227       -0.04839       -4.24961
