100
-131.96568275
C         -3.10207       -2.87884       -1.34611
C         -1.92438       -3.43242       -0.67125
C         -2.79928       -1.54889       -1.74185
C         -1.38883       -1.22282       -1.36960
C         -0.57727       -0.36053       -2.29116
C         -0.87579       -2.45456       -0.67156
C          0.54960       -2.83138       -0.29651
C          1.11274       -3.87534       -1.23736
Cl        -0.59027        1.40754        2.58985
Cl         0.47348       -1.57644        2.70340
C          0.65774        1.19772       -4.27354
C          0.21416       -0.07549       -4.57496
C          0.49548        1.69503       -2.98845
C         -0.39873       -0.83496       -3.60946
C         -0.08504        0.93191       -2.00472
H         -1.83023       -4.45391       -0.29676
H         -3.43687       -0.92363       -2.37178
H          1.19297       -3.47351       -2.24921
H          2.10078       -4.21484       -0.91891
H          0.46515       -4.75383       -1.29092
H          1.12562        1.80289       -5.03259
H          0.33744       -0.46652       -5.57193
H          0.81821        2.69909       -2.76141
H         -0.76877       -1.81642       -3.85210
H         -4.03624       -3.41069       -1.54416
P         -0.19801        1.71147       -0.38784
H          0.50264       -3.24948        0.71849
P          1.76081       -1.43137       -0.10059
H          1.72470       -0.77381       -2.38188
C          3.58573       -1.86356       -2.33048
C          2.54929       -0.92209       -1.68911
C          3.52119       -1.76626       -3.85869
H          3.59112       -2.79146        0.58087
C          4.03632       -0.91040        1.56905
C          3.05452       -1.98669        1.08596
H          4.31183       -0.29293        0.69574
C          3.42389        0.01201        2.62627
H          0.93388        3.79569       -0.80478
H         -2.09500        2.56196        0.81876
C         -4.28671        2.44544       -0.96130
C         -2.90195        1.77363       -1.03303
C         -1.84442        2.56091       -0.24916
C         -1.77611        4.00944       -0.75940
C         -3.15541        4.69744       -0.69738
C         -4.21325        3.89405       -1.47647
H         -4.63785        2.44791        0.07780
H         -5.03199        1.86449       -1.52260
H         -2.58283        1.70832       -2.08093
H         -2.94143        0.73808       -0.67816
H         -1.03502        4.58654       -0.19170
H         -1.41272        3.99953       -1.79435
H         -3.46736        4.78615        0.35076
H         -3.09337        5.72841       -1.07321
H         -3.95233        3.88767       -2.54230
H         -5.19703        4.38096       -1.41730
C          3.65300        3.44375       -0.22249
C          2.53706        2.40556       -0.45789
C          1.15140        2.97070       -0.11611
C          1.12995        3.50684        1.32250
C          2.22201        4.56991        1.54307
C          3.61152        3.99238        1.21594
H          3.53250        4.27241       -0.93135
H          4.63801        3.00912       -0.44416
H          2.71929        1.52001        0.15992
H          2.55572        2.05580       -1.49743
H          0.13447        3.89023        1.58324
H          1.30364        2.67047        2.00905
H          2.02406        5.43271        0.89507
H          2.18874        4.95823        2.57065
H          3.84325        3.18322        1.91980
H          4.39491        4.74807        1.36943
H          3.33211       -2.89730       -2.04547
C          5.00640       -1.57618       -1.84111
H          2.55881       -2.44662        1.94085
C          5.31105       -1.55729        2.12324
H          3.00140        0.05533       -1.53827
H          2.52939       -2.02110       -4.23570
H          4.24108       -2.43427       -4.33406
H          3.74596       -0.75101       -4.18729
H          5.28955       -0.54654       -2.06239
H          5.10543       -1.72230       -0.76760
H          5.73389       -2.22720       -2.32869
H          2.58170        0.58158        2.24040
H          3.06488       -0.56495        3.47885
H          4.15668        0.72850        3.00064
H          5.79207       -2.20472        1.38885
H          6.03872       -0.80565        2.43330
H          5.07944       -2.16949        2.99540
Fe        -2.55509       -1.73316        0.23923
C         -4.00036       -2.72000        1.40038
C         -4.46746       -1.42091        0.95118
C         -3.56951       -0.41137        1.47641
C         -2.52922       -1.09221        2.21674
C         -2.78398       -2.51613        2.16219
H         -4.47771       -3.68108        1.19766
H         -5.37391       -1.23099        0.37148
H         -3.70069        0.67033        1.41305
H         -1.71015       -0.60796        2.74644
H         -2.18149       -3.29256        2.63844
Pd         0.38180        0.01073        1.09613
