64
-97.22197130
Cl        -1.31790       -0.33100       -2.85512
Cl         1.85158       -0.88872       -2.91029
P          1.94882       -0.70264        0.30378
C          2.03802       -2.46153        0.88735
C          3.76751       -0.39567        0.06849
P         -1.25770       -0.27498        0.40420
C          1.23424        0.43929        1.54189
C         -0.20345        0.62004        1.60988
C         -0.48462        1.61240        2.63750
C          0.79045        2.07704        3.15697
C          1.85448        1.33175        2.50666
H         -1.47217        1.93542        2.97203
H          0.92395        2.81866        3.94789
Pd         0.27872       -0.69874       -1.32730
H          2.92601        1.43632        2.68609
C         -5.11521        1.84339       -0.79788
C         -4.83355        0.57268       -1.25815
C         -3.65809       -0.05190       -0.88058
C         -2.76836        0.59463       -0.05317
C         -3.05428        1.85707        0.41441
C         -4.22670        2.48663        0.04036
H         -6.02921        2.33290       -1.09242
H         -5.52516        0.06821       -1.91272
H         -3.42413       -1.04315       -1.23594
H         -2.35748        2.35056        1.06781
H         -4.44544        3.47784        0.40249
C         -2.47175       -4.34042        2.02470
C         -2.11525       -4.21191        0.69634
C         -1.75060       -2.97452        0.19772
C         -1.74068       -1.88032        1.03176
C         -2.10376       -1.99904        2.35340
C         -2.46937       -3.23595        2.85438
H         -2.75578       -5.30451        2.41404
H         -2.12240       -5.07286        0.04824
H         -1.48126       -2.85519       -0.83948
H         -2.09197       -1.12563        2.98645
H         -2.75041       -3.33622        3.88987
C          4.12641        0.51617       -1.08435
H          4.11329        0.03657        1.01688
C          4.32259       -1.82207       -0.08251
H          5.39612       -1.84396        0.16004
C          3.53173       -2.82926        0.79147
H          4.25182       -2.11569       -1.13922
C          1.47933       -2.58357        2.28852
H          1.44521       -3.04795        0.17277
H          3.95761       -2.84231        1.80374
H          3.65112       -3.85494        0.41225
H          1.52603       -3.61334        2.65032
H          2.04439       -1.95907        2.98339
H          0.43974       -2.25685        2.33333
H          5.20849        0.57243       -1.21923
H          3.70085        0.15011       -2.01821
H          3.76367        1.53107       -0.92501
Fe         0.68836        2.34472        1.12803
C          1.00965        4.32091        0.54387
C         -0.31440        3.88203        0.14151
C         -0.16302        2.72776       -0.72440
C          1.25202        2.44796       -0.85500
C          1.97767        3.42352       -0.06199
H          1.23746        5.17822        1.18078
H         -1.25564        4.37051        0.40196
H         -0.96154        2.18689       -1.23579
H          1.67739        1.67076       -1.49257
H          3.06301        3.50461        0.02928
