111
-148.55442048
P         -2.73870       -1.95462        0.56831
P          0.01138       -0.56920       -0.26587
C         -2.00332       -2.29391       -1.05395
C         -0.79221       -1.72797       -1.39089
C         -3.50785       -3.46811        1.30436
C         -2.66931       -4.01742        2.43778
C         -2.65697       -3.10813       -1.95644
H         -3.61172       -3.53435       -1.69479
C         -2.09046       -3.35858       -3.19452
H         -2.60064       -3.99390       -3.90002
C         -0.87448       -2.79347       -3.52801
H         -0.43501       -2.98585       -4.49291
C         -0.22513       -1.97193       -2.62409
H          0.71658       -1.50884       -2.87429
Pd        -1.10428       -0.83483        1.74439
Cl        -2.45214       -0.89666        3.53440
Cl         0.62894        0.22520        2.71199
C         -4.90730       -2.97561        1.71814
C         -4.21012       -0.83593        0.49847
H         -3.12355       -4.90993        2.87445
H         -1.66450       -4.27914        2.09747
H         -2.56286       -3.27945        3.23414
H         -4.87297       -2.66207        2.77063
H         -5.63258       -3.80259        1.67954
H         -4.06939       -0.09998        1.30152
C         -5.37728       -1.78106        0.83923
C         -4.32075       -0.14943       -0.84545
H         -3.58619       -4.20239        0.49245
H         -5.80890       -2.16194       -0.09664
H         -6.18842       -1.22491        1.33340
H         -3.44276        0.46843       -1.04499
H         -4.39575       -0.88229       -1.65089
H         -5.20411        0.49144       -0.89548
C         -1.11369        3.71132       -1.34457
C         -0.35952        3.44333       -0.17376
C         -0.07308        2.12424        0.13048
C         -0.42685        1.10780       -0.71543
C         -1.06052        1.37005       -1.90148
C         -1.39289        2.66530       -2.26130
O         -1.61776        5.01738       -1.58449
C          0.13236        4.54601        0.77626
H          0.41701        1.86217        1.05184
H         -1.29803        0.54192       -2.54521
C         -2.06702        2.91934       -3.61893
C          4.54465       -0.98441       -0.17095
C          3.75626       -1.68834        0.77527
C          2.37755       -1.58303        0.69015
C          1.78941       -0.75081       -0.22522
C          2.54951        0.01428       -1.07114
C          3.93261       -0.05310       -1.04785
O          5.94069       -1.23081       -0.25985
C          4.37212       -2.54859        1.89028
H          1.73968       -2.13959        1.35497
H          2.04112        0.67674       -1.75061
C          4.74364        0.86801       -1.97264
C          0.41165        5.85397        0.01420
C         -0.92017        4.78026        1.87028
C          1.45979        4.12743        1.45023
C         -1.66285        1.83510       -4.64369
C         -3.59333        2.88242       -3.44841
C         -1.63196        4.27578       -4.20277
C         -2.89072        5.26388       -1.00038
H         -0.49502        6.25735       -0.42925
H          0.82032        6.61500        0.67850
H          1.12844        5.68406       -0.78857
H         -1.87053        5.09190        1.44358
H         -1.09575        3.86595        2.43679
H         -0.59404        5.55180        2.56718
H          2.19538        3.82763        0.70434
H          1.88073        4.95372        2.02248
H          1.31801        3.29931        2.14289
H         -2.03518        2.08423       -5.63713
H         -0.57865        1.74451       -4.70579
H         -2.07540        0.86127       -4.38334
H         -4.09639        3.06449       -4.39774
H         -3.91689        1.91045       -3.07772
H         -3.92989        3.63574       -2.74060
H         -2.05817        4.43097       -5.19360
H         -1.95617        5.10046       -3.57265
H         -0.54700        4.32660       -4.28818
H         -2.81136        6.07200       -0.27359
H         -3.59304        5.57165       -1.77496
H         -3.26336        4.36564       -0.50628
C          6.28751       -2.29339       -1.13866
C          5.73318       -1.98455        2.33735
C          3.45829       -2.55472        3.13764
C          4.53445       -3.99214        1.39179
C          6.08032        1.26618       -1.32091
C          4.99799        0.15205       -3.30754
C          3.97165        2.17782       -2.25419
H          6.46208       -2.02083        1.53162
H          5.63299       -0.94583        2.65046
H          6.13804       -2.55374        3.17374
H          3.95126       -3.04459        3.97696
H          3.21092       -1.53777        3.44128
H          2.52920       -3.09239        2.95499
H          3.57064       -4.41057        1.10278
H          5.18856       -4.03848        0.52438
H          4.95935       -4.62768        2.16833
H          6.62771        1.97002       -1.94734
H          5.90996        1.73498       -0.35229
H          6.71856        0.39994       -1.16460
H          5.56098       -0.76651       -3.16061
H          4.05641       -0.10974       -3.78978
H          5.56219        0.78710       -3.99007
H          3.08472        2.00131       -2.86103
H          4.59591        2.88518       -2.79963
H          3.66213        2.65331       -1.32384
H          5.39257       -2.71583       -1.59724
H          6.95353       -1.92050       -1.91661
H          6.81365       -3.07015       -0.58409
