111
-148.55894899
P         -2.56135       -1.81096       -1.20423
P          0.21212       -0.51788       -0.39012
C         -1.30204       -1.51478       -2.47364
C         -0.07527       -1.00625       -2.10445
C         -3.54160       -3.34370       -1.53970
C         -3.09834       -4.49187       -0.65953
C         -1.56292       -1.78839       -3.80111
H         -2.53041       -2.16654       -4.08770
C         -0.58730       -1.55961       -4.75612
H         -0.79014       -1.77301       -5.79293
C          0.64410       -1.05621       -4.38292
H          1.40263       -0.87565       -5.12670
C          0.89890       -0.77387       -3.05313
H          1.84844       -0.36358       -2.74804
Pd        -1.44965       -1.62021        0.80270
Cl        -3.25850       -2.38468        1.88128
Cl        -0.21410       -1.30100        2.65066
C         -4.98951       -2.87357       -1.30708
C         -3.91576       -0.54950       -1.16963
H         -2.04299       -4.72743       -0.81611
H         -3.22500       -4.24398        0.39510
H         -3.68109       -5.39455       -0.85727
H         -5.25839       -3.06751       -0.25943
H         -5.68965       -3.47347       -1.90836
H         -4.01448       -0.23998       -0.12043
C         -5.15247       -1.35621       -1.61000
C         -3.59304        0.63697       -2.05212
H         -3.38733       -3.58918       -2.59796
H         -5.30135       -1.21331       -2.68913
H         -6.05976       -0.95630       -1.13227
H         -2.68671        1.14460       -1.71711
H         -3.42790        0.31921       -3.08325
H         -4.40607        1.36659       -2.05435
C         -1.20977        3.78510        0.09822
C         -0.73141        3.33647       -1.15921
C         -0.28639        2.02976       -1.26469
C         -0.34981        1.17320       -0.19763
C         -0.88300        1.57912        0.99630
C         -1.37511        2.86149        1.16194
O         -1.48874        5.16300        0.29984
C         -0.66142        4.25270       -2.39024
H          0.12021        1.66006       -2.18948
H         -0.90060        0.87256        1.80740
C         -2.07631        3.22060        2.48118
C          4.59382       -0.71571        0.83241
C          4.10088        0.40508        0.11285
C          2.75622        0.42885       -0.21683
C          1.93704       -0.63354        0.06448
C          2.43595       -1.77086        0.64234
C          3.76999       -1.86004        1.00638
O          5.87328       -0.65945        1.44240
C          4.96847        1.59266       -0.33777
H          2.32739        1.29550       -0.69139
H          1.76156       -2.58980        0.82713
C          4.27105       -3.19711        1.57803
C         -1.82794        5.25693       -2.39698
C          0.68167        4.99864       -2.38961
C         -0.76615        3.42995       -3.69493
C         -1.03284        3.70826        3.49701
C         -3.15302        4.29896        2.26299
C         -2.79529        1.98134        3.06445
C         -0.39231        5.90488        0.81914
H         -1.81478        5.86687       -3.29990
H         -2.78343        4.73514       -2.35357
H         -1.77613        5.93009       -1.54471
H          1.51341        4.29455       -2.40746
H          0.76893        5.64713       -3.26098
H          0.78943        5.61493       -1.50038
H          0.11159        2.80371       -3.84833
H         -1.64770        2.78957       -3.68126
H         -0.84422        4.08705       -4.56078
H         -0.51151        4.59095        3.13411
H         -1.50179        3.96053        4.44770
H         -0.28689        2.93589        3.68290
H         -2.71592        5.23401        1.92221
H         -3.87339        3.97466        1.51266
H         -3.69415        4.50515        3.18609
H         -3.45259        1.52937        2.32201
H         -2.08907        1.22388        3.40067
H         -3.40289        2.25599        3.92623
H         -0.15845        6.72876        0.14499
H         -0.65873        6.32416        1.78911
H          0.48358        5.26395        0.92806
C          5.83312       -0.11888        2.75268
C          4.66821        1.91289       -1.81934
C          4.63365        2.82487        0.51930
C          6.47356        1.28954       -0.23983
C          5.80675       -3.29231        1.58837
C          3.73446       -3.37140        3.00856
C          3.75478       -4.35835        0.69979
H          4.82178        1.03171       -2.44166
H          3.64319        2.25127       -1.96173
H          5.32365        2.70218       -2.18664
H          5.21877        3.68862        0.20464
H          3.57895        3.08488        0.43288
H          4.84493        2.64183        1.57108
H          7.06635        2.10467       -0.65425
H          6.78194        1.15149        0.79369
H          6.71831        0.37901       -0.78565
H          6.13709       -4.28146        1.90461
H          6.21033       -3.10010        0.59487
H          6.24247       -2.56690        2.27122
H          2.64538       -3.34185        3.02201
H          4.05029       -4.32537        3.42987
H          4.09456       -2.58001        3.66291
H          4.16079       -5.31128        1.03829
H          4.05225       -4.21631       -0.33880
H          2.66967       -4.43963        0.73205
H          5.19793       -0.73145        3.39028
H          6.84261       -0.09684        3.16376
H          5.43200        0.89294        2.72780
