111
-148.55524846
P         -2.40159       -2.31972       -0.44200
P          0.00609       -0.25926       -0.45476
C         -1.39959       -2.11946       -1.93533
C         -0.34953       -1.22834       -1.93146
C         -2.60551       -4.10696       -0.00798
C         -1.77056       -4.47444        1.19940
C         -1.68020       -2.85082       -3.07131
H         -2.50230       -3.54809       -3.06534
C         -0.90660       -2.68078       -4.20670
H         -1.12520       -3.24947       -5.09575
C          0.14475       -1.78383       -4.20151
H          0.74657       -1.65117       -5.08545
C          0.42499       -1.05526       -3.05904
H          1.24106       -0.34988       -3.03707
Pd        -1.46311       -0.97947        1.18447
Cl        -3.14678       -1.61701        2.52384
Cl        -0.39583        0.31243        2.67477
C         -4.12557       -4.24438        0.19637
C         -4.17395       -1.83732       -0.66890
H         -2.05345       -3.87112        2.06382
H         -1.90248       -5.52421        1.47169
H         -0.70768       -4.30370        1.01281
H         -4.35027       -4.11225        1.26371
H         -4.45583       -5.26463       -0.05128
H         -4.43547       -1.23595        0.21212
C         -4.91193       -3.18808       -0.63072
C         -4.37482       -1.04014       -1.93908
H         -2.28457       -4.67614       -0.89022
H         -5.04174       -3.55032       -1.65977
H         -5.92998       -3.05685       -0.23369
H         -4.09106       -1.62481       -2.81564
H         -5.41834       -0.74183       -2.06411
H         -3.76058       -0.13753       -1.93546
C         -0.84696        4.16678       -1.12878
C         -1.42992        3.19812       -1.98572
C         -1.12365        1.86386       -1.77061
C         -0.34152        1.47858       -0.71237
C          0.12224        2.40124        0.18815
C         -0.13478        3.75200        0.02506
O         -0.95097        5.55210       -1.42669
C         -2.37215        3.56936       -3.14258
H         -1.48999        1.10188       -2.43614
H          0.68005        2.04343        1.03582
C          0.35214        4.75235        1.08519
C          4.21689       -1.11538        1.06067
C          3.13160       -1.93288        1.46634
C          1.87628       -1.65878        0.94974
C          1.66403       -0.57002        0.14464
C          2.68879        0.28720       -0.16155
C          3.97159        0.06394        0.31200
O          5.54911       -1.49927        1.36862
C          3.29387       -3.10343        2.44873
H          1.04040       -2.29857        1.17464
H          2.47179        1.13805       -0.78364
C          5.07621        1.08388       -0.00554
C         -3.15458        4.85975       -2.83606
C         -1.55293        3.73504       -4.43151
C         -3.42285        2.45829       -3.36612
C          1.69009        5.36390        0.64435
C         -0.69230        5.86318        1.29649
C          0.56141        4.05491        2.44834
C          0.05963        6.03808       -2.30135
H         -3.87009        5.08167       -3.62745
H         -3.70390        4.76116       -1.90034
H         -2.49246        5.71629       -2.74317
H         -1.03980        2.80706       -4.68298
H         -2.19458        4.00367       -5.27031
H         -0.79754        4.50961       -4.32337
H         -4.16176        2.76783       -4.10493
H         -2.96898        1.53982       -3.73495
H         -3.95100        2.23603       -2.43940
H          1.58271        5.92319       -0.28090
H          2.07689        6.04428        1.40263
H          2.43336        4.58571        0.47799
H         -1.65347        5.43672        1.58159
H         -0.37954        6.55115        2.08151
H         -0.84037        6.44315        0.38827
H          1.39717        3.35712        2.41706
H          0.78248        4.78474        3.22671
H         -0.33250        3.50807        2.74723
H          0.82245        5.27542       -2.46312
H         -0.38066        6.31979       -3.25721
H          0.51727        6.92659       -1.86634
C          6.14457       -2.34494        0.39281
C          4.43718       -2.83800        3.44503
C          2.00599       -3.29038        3.28403
C          3.56526       -4.39484        1.66315
C          4.48471        2.50725       -0.11155
C          6.13550        1.12456        1.11126
C          5.73431        0.71887       -1.34438
H          5.39735       -2.77354        2.93930
H          4.27442       -1.89926        3.97350
H          4.50681       -3.63597        4.18384
H          1.17708       -3.64683        2.67496
H          2.15986       -4.02430        4.07467
H          1.70798       -2.35196        3.75107
H          3.67068       -5.24585        2.33555
H          2.74669       -4.60695        0.97568
H          4.47783       -4.31435        1.07694
H          3.83307        2.61223       -0.97764
H          3.91187        2.75043        0.78276
H          5.27606        3.24938       -0.21465
H          6.87785        1.89893        0.91953
H          5.66972        1.33166        2.07415
H          6.66287        0.17742        1.19280
H          6.18028       -0.27242       -1.30542
H          6.51778        1.43120       -1.60170
H          4.99880        0.72022       -2.14850
H          5.44211       -2.54400       -0.41752
H          7.03691       -1.86635       -0.01031
H          6.44092       -3.28589        0.85613
