111
-148.55700127
P         -1.94220       -2.65776       -0.44100
P         -0.26678        0.02771       -0.56654
C         -1.43658       -1.98218       -2.04437
C         -0.76536       -0.77991       -2.09905
C         -1.27455       -4.36431       -0.19365
C         -0.35110       -4.38908        1.00528
C         -1.72088       -2.66646       -3.20868
H         -2.22996       -3.61508       -3.15699
C         -1.34337       -2.13445       -4.42953
H         -1.56786       -2.66613       -5.33977
C         -0.67789       -0.92462       -4.48234
H         -0.38123       -0.51187       -5.43251
C         -0.38103       -0.24876       -3.31228
H          0.15827        0.68478       -3.33523
Pd        -1.33873       -1.09648        1.14617
Cl        -2.82783       -2.00861        2.55211
Cl        -0.58647        0.45650        2.58139
C         -2.53911       -5.23281       -0.03000
C         -3.75732       -3.01597       -0.38394
H          0.06684       -5.38528        1.16938
H          0.47567       -3.68548        0.88486
H         -0.88986       -4.10184        1.91083
H         -2.69022       -5.43413        1.03930
H         -2.38913       -6.21889       -0.49461
H         -4.08188       -2.77322        0.63633
C         -3.80696       -4.53828       -0.60300
C         -4.53303       -2.19660       -1.39330
H         -0.73730       -4.62205       -1.11576
H         -3.88593       -4.74062       -1.67991
H         -4.72146       -4.95872       -0.15723
H         -5.60378       -2.40596       -1.33827
H         -4.38755       -1.12625       -1.22902
H         -4.20764       -2.41778       -2.41064
C         -0.94546        4.52948       -0.45069
C          0.15671        4.00894       -1.17647
C          0.35081        2.63696       -1.18360
C         -0.54139        1.79554       -0.57108
C         -1.66654        2.28732        0.03685
C         -1.91634        3.64837        0.08909
O         -1.05743        5.92999       -0.24086
C          1.14173        4.91469       -1.93311
H          1.21398        2.20476       -1.65960
H         -2.34388        1.58702        0.49482
C         -3.20509        4.14065        0.76584
C          3.96911       -1.26160        0.49375
C          3.52962        0.03952        0.85013
C          2.23108        0.40246        0.53352
C          1.41855       -0.43563       -0.18225
C          1.86795       -1.65738       -0.61243
C          3.15341       -2.08525       -0.32417
O          5.21001       -1.76368        0.96995
C          4.42091        1.05846        1.57788
H          1.82858        1.34680        0.85624
H          1.19373       -2.27424       -1.18073
C          3.66670       -3.41363       -0.90312
C          1.78469        4.15687       -3.11668
C          0.41839        6.13940       -2.52244
C          2.25911        5.36845       -0.98223
C         -4.34009        3.10414        0.59843
C         -2.94265        4.33773        2.26684
C         -3.70171        5.45286        0.13257
C         -0.42585        6.39262        0.94642
H          1.02055        3.71492       -3.75564
H          2.38285        4.83164       -3.72866
H          2.44808        3.36404       -2.77390
H         -0.40126        5.82676       -3.16853
H          0.00403        6.76956       -1.73918
H          1.10058        6.75161       -3.11173
H          1.86056        5.93444       -0.14440
H          2.79212        4.50927       -0.57804
H          2.98057        5.99951       -1.50064
H         -5.28630        3.50512        0.96100
H         -4.46967        2.83679       -0.44997
H         -4.14279        2.19435        1.16345
H         -2.62479        3.40237        2.72708
H         -2.15872        5.07136        2.43786
H         -3.84167        4.67850        2.77961
H         -2.98887        6.26021        0.27865
H         -3.84982        5.32887       -0.93965
H         -4.64843        5.76625        0.57188
H          0.08782        5.57197        1.44893
H          0.29136        7.17417        0.69599
H         -1.17101        6.81981        1.61701
C          5.13926       -2.35616        2.26101
C          4.07613        2.49549        1.12395
C          4.18091        0.95040        3.09149
C          5.90967        0.83984        1.25209
C          5.12812       -3.26104       -1.36232
C          3.56329       -4.52486        0.15171
C          2.83758       -3.83808       -2.13597
H          4.11839        2.57485        0.03803
H          3.08303        2.79767        1.45268
H          4.78246        3.21344        1.54017
H          4.80092        1.66088        3.63749
H          3.13826        1.15848        3.33080
H          4.40811       -0.04777        3.45802
H          6.25934       -0.12668        1.60389
H          6.07597        0.88140        0.17615
H          6.52932        1.60415        1.72047
H          5.78020       -3.02161       -0.52501
H          5.49479       -4.18135       -1.81615
H          5.21860       -2.46093       -2.09625
H          4.17754       -4.30316        1.01965
H          2.53580       -4.64420        0.49087
H          3.89548       -5.47960       -0.25536
H          2.79922       -3.03756       -2.87438
H          1.81746       -4.10192       -1.85984
H          3.27683       -4.71290       -2.61480
H          5.64951       -3.31928        2.24428
H          5.64097       -1.72250        2.99120
H          4.09915       -2.49760        2.55760
