75
-122.81261742
P          1.83615       -0.54998       -0.02393
C          1.70680       -1.50144       -1.54748
C          1.82049       -2.87100       -1.47013
C          1.81117       -3.63017       -2.62658
C          1.69172       -3.01094       -3.85478
C          1.57529       -1.63728       -3.92860
C          1.58295       -0.88284       -2.77047
H          1.48136        0.18830       -2.81417
H          1.47281       -1.15337       -4.88594
H          1.68201       -3.60112       -4.75654
H          1.89884       -4.70254       -2.56774
H          1.93099       -3.33945       -0.50489
C          3.14986       -1.33874        0.91963
C          4.44920       -1.23096        0.47848
C          5.46458       -1.87154        1.16544
C          5.16871       -2.62819        2.28176
C          3.86092       -2.75344        2.70624
C          2.84815       -2.11234        2.01656
H          1.82171       -2.20713        2.33341
H          3.62832       -3.34879        3.57382
H          5.95901       -3.12630        2.81934
H          6.48361       -1.78364        0.82612
H          4.66186       -0.66357       -0.41386
C          2.20405        1.17663       -0.39284
C          3.32887        1.84981        0.02430
C          3.47310        3.20727       -0.22726
C          2.45521        3.87643       -0.90624
C          1.31257        3.22060       -1.30712
C          1.18263        1.84651       -1.05084
O          0.01647        1.14837       -1.40782
C         -1.19440        1.80277       -1.12860
C         -1.36626        3.16539       -1.41938
C         -2.56817        3.77216       -1.12930
C         -3.60604        3.06789       -0.51989
C         -3.41258        1.72822       -0.21204
C         -2.22401        1.10569       -0.51422
P         -1.81473       -0.57358       -0.00684
C         -3.12459       -1.24998        1.02486
C         -2.89750       -1.60632        2.33435
C         -3.92563       -2.13811        3.09046
C         -5.17380       -2.31609        2.52771
C         -5.39524       -1.96731        1.21035
C         -4.36446       -1.43540        0.45645
H         -4.51773       -1.17020       -0.57818
H         -6.36765       -2.11064        0.76864
H         -5.97589       -2.72938        3.11721
H         -3.75230       -2.41022        4.11867
H         -1.92081       -1.46046        2.76573
C         -1.66808       -1.64652       -1.43742
C         -1.57549       -3.00466       -1.23749
C         -1.54451       -3.85768       -2.32626
C         -1.61121       -3.34260       -3.60583
C         -1.70288       -1.97855       -3.80035
C         -1.73157       -1.12837       -2.71036
H         -1.79767       -0.06116       -2.84488
H         -1.74742       -1.57592       -4.79886
H         -1.58469       -4.00619       -4.45466
H         -1.46972       -4.92189       -2.17477
H         -1.54092       -3.39106       -0.23084
Pd         0.00318        0.05886        1.36100
Cl        -1.49842        1.16463        2.62725
Cl         1.55767        0.39426        2.95611
H         -4.18764        1.17796        0.29146
C         -4.90051        3.73406       -0.21546
H         -5.35476        3.31559        0.68362
H         -5.60430        3.60776       -1.03908
H         -4.76370        4.80336       -0.04953
H         -2.69794        4.81366       -1.36491
S         -0.01307        4.06414       -2.13347
H          2.55296        4.92801       -1.11035
C          4.70122        3.92797        0.20234
H          4.08971        1.32682        0.57537
H          4.49969        4.98736        0.36584
H          5.09009        3.51771        1.13525
H          5.48290        3.84610       -0.55389
