171
-217.84820642
P         -1.55422        0.29773       -0.40396
P          1.61123       -0.42562       -0.16996
C         -0.76892        1.25838       -1.70175
C          1.01250       -1.40733       -1.55409
C          0.06648        0.64463       -2.62738
C          0.70581        1.44254       -3.59601
C          0.46274        2.80613       -3.61660
C         -0.38399        3.39218       -2.69946
C         -0.99461        2.61239       -1.73676
C          1.23106       -2.76322       -1.51897
C          0.72146       -3.57737       -2.51082
C         -0.02407       -3.02421       -3.52984
C         -0.25819       -1.66039       -3.58457
C          0.28408       -0.82689       -2.58722
Cl         1.28148        0.03566        3.10693
Cl        -1.87047       -0.63349        2.71462
C         -1.08584       -1.11015       -4.69304
C          1.61923        0.84492       -4.60843
H         -0.56900        4.45327       -2.73410
H         -1.65226        3.06022       -1.00902
H          1.80293       -3.18966       -0.71122
H          0.89971       -4.63990       -2.48269
H          0.94757        3.41148       -4.36385
H         -0.43967       -3.65582       -4.29690
C         -3.75359       -3.33040       -1.97189
C         -2.82603       -3.49641       -0.95140
C         -2.16613       -2.36678       -0.48561
C         -2.40863       -1.13883       -1.04837
C         -3.30776       -0.99538       -2.07690
C         -4.00947       -2.09596       -2.55581
H         -4.30795       -4.18671       -2.30874
H         -1.46130       -2.43417        0.32448
H         -3.45830       -0.01587       -2.49789
C         -4.45346        2.93325        1.89187
C         -3.09507        3.04506        2.15923
C         -2.22331        2.25042        1.42582
C         -2.70263        1.34989        0.50606
C         -4.05146        1.23268        0.27847
C         -4.95741        2.03195        0.96329
H         -5.14109        3.56509        2.42287
H         -1.16117        2.31523        1.58279
H         -4.39424        0.50553       -0.43472
C          4.58222       -2.70624        2.39429
C          3.26005       -3.13429        2.37186
C          2.36374       -2.44188        1.56693
C          2.78293       -1.36786        0.82134
C          4.09257       -0.95883        0.85918
C          5.02327       -1.62133        1.64630
H          5.27735       -3.22658        3.02589
H          1.32369       -2.71742        1.53773
H          4.39090       -0.10042        0.28344
C          3.63338        3.48968       -1.18464
C          2.62618        3.48335       -0.22719
C          1.99604        2.27590        0.04154
C          2.35906        1.13541       -0.63043
C          3.35671        1.15657       -1.57397
C          4.02153        2.34197       -1.86554
H          4.14941        4.40699       -1.39669
H          1.23189        2.21772        0.79757
H          3.62377        0.23489       -2.06259
Pd        -0.12082       -0.21139        1.37263
C         -2.26854       -5.89184       -1.46743
C         -2.58654       -4.88547       -0.34515
C         -3.85239       -5.32899        0.40830
C         -1.40177       -4.87315        0.64047
H         -2.04880       -6.87700       -1.05636
H         -3.10544       -6.00032       -2.15589
H         -1.40252       -5.56570       -2.04223
H         -3.71391       -6.31050        0.86132
H         -4.09527       -4.62144        1.20090
H         -4.70907       -5.38621       -0.26251
H         -1.60348       -4.22338        1.49174
H         -1.21136       -5.87319        1.02970
H         -0.49218       -4.52824        0.14945
C         -6.46853       -2.21622       -2.99010
C         -5.09354       -1.96985       -3.63648
C         -4.85617       -3.01122       -4.74762
C         -5.09460       -0.56818       -4.27779
H         -6.52322       -3.21233       -2.55192
H         -6.65712       -1.49275       -2.19771
H         -7.26804       -2.12798       -3.72548
H         -5.59775       -2.90876       -5.53975
H         -3.87068       -2.88783       -5.19410
H         -4.92445       -4.02816       -4.36397
H         -5.33013        0.20149       -3.54338
H         -4.12572       -0.33790       -4.71973
H         -5.84273       -0.50511       -5.06788
C         -2.71729        5.46202        2.67956
C         -2.59308        4.02979        3.22508
C         -1.12110        3.75736        3.59378
C         -3.43380        3.88568        4.50920
H         -3.75389        5.70101        2.44329
H         -2.36021        6.19038        3.40740
H         -2.13190        5.57918        1.76781
H         -0.46368        3.94015        2.74660
H         -0.79594        4.41007        4.40369
H         -0.98459        2.72630        3.92002
H         -3.04913        4.52962        5.29990
H         -4.47439        4.15940        4.34181
H         -3.40896        2.85759        4.87004
C         -6.99680        3.29522        0.23284
C         -6.47178        1.93607        0.73003
C         -7.16627        1.56076        2.05203
C         -6.81706        0.86423       -0.32254
H         -8.06871        3.25266        0.04039
H         -6.82095        4.08049        0.96712
H         -6.49872        3.58458       -0.69239
H         -6.99731        2.31722        2.81743
H         -8.24271        1.46184        1.91309
H         -6.78548        0.61203        2.42975
H         -6.47444       -0.12042       -0.00489
H         -7.89444        0.80487       -0.47632
H         -6.35956        1.09751       -1.28369
C          1.33772       -4.66342        3.03455
C          2.81843       -4.30328        3.26343
C          3.00165       -3.90416        4.73864
C          3.67290       -5.54472        2.94684
H          1.04220       -5.50555        3.66008
H          0.68575       -3.82595        3.28239
H          1.16347       -4.94510        1.99668
H          2.67947       -4.70529        5.40352
H          4.04498       -3.68319        4.96105
H          2.41522       -3.01512        4.97023
H          4.72740       -5.36594        3.15288
H          3.35784       -6.39780        3.54755
H          3.57819       -5.81864        1.89619
C          7.05773       -1.17328        0.25102
C          6.47240       -1.11563        1.67443
C          7.35659       -1.96898        2.60335
C          6.48922        0.33924        2.18081
H          6.49251       -0.54343       -0.43470
H          8.09262       -0.83172        0.24016
H          7.03371       -2.19241       -0.13430
H          6.99085       -1.93869        3.62954
H          7.38198       -3.00789        2.27500
H          8.38193       -1.59928        2.60803
H          5.92012        0.99497        1.52262
H          6.05116        0.40463        3.17653
H          7.50796        0.72286        2.23315
C          2.42807        4.46765        2.06699
C          2.22137        4.73478        0.56384
C          0.74152        5.05335        0.28641
C          3.06494        5.96159        0.16758
H          3.47457        4.24775        2.27705
H          2.13863        5.33383        2.66169
H          1.83843        3.61709        2.40550
H          0.59206        5.28910       -0.76644
H          0.10189        4.20717        0.53058
H          0.40846        5.90914        0.87323
H          2.93878        6.20003       -0.88838
H          2.76438        6.83818        0.74142
H          4.12367        5.78849        0.35975
C          6.47521        2.78797       -2.07175
C          5.20138        2.40110       -2.84617
C          4.91701        3.45350       -3.93412
C          5.44437        1.04123       -3.52986
H          6.37183        3.76694       -1.60507
H          6.68208        2.06326       -1.28439
H          7.33973        2.82302       -2.73443
H          5.72705        3.48929       -4.66239
H          3.99553        3.22152       -4.46641
H          4.81231        4.44964       -3.50617
H          4.56607        0.71650       -4.08581
H          6.27485        1.10508       -4.23283
H          5.69242        0.27241       -2.79857
H         -1.99147       -1.70158       -4.82618
H          2.45110        1.51458       -4.82719
H         -0.53637       -1.12502       -5.63528
H         -1.39177       -0.08232       -4.49400
H          1.09255        0.65553       -5.54455
H          2.03749       -0.09967       -4.25790
