111
-148.55674814
P         -2.52661       -2.04381       -0.98430
P          0.14818       -0.41730       -0.48977
C         -1.37167       -1.77152       -2.35522
C         -0.19161       -1.09757       -2.12517
C         -3.35001       -3.69828       -1.08056
C         -2.79459       -4.64947       -0.04311
C         -1.67158       -2.21958       -3.62571
H         -2.60518       -2.72696       -3.80552
C         -0.78019       -1.99944       -4.66173
H         -1.01334       -2.34917       -5.65418
C          0.40525       -1.32951       -4.42664
H          1.09784       -1.15621       -5.23377
C          0.69838       -0.87253       -3.15432
H          1.61171       -0.33344       -2.95617
Pd        -1.36209       -1.46963        0.91843
Cl        -3.10542       -2.16062        2.14536
Cl        -0.04520       -0.85112        2.63297
C         -4.83982       -3.35028       -0.90140
C         -4.00572       -0.93385       -1.03593
H         -3.28250       -5.62566       -0.09431
H         -1.72039       -4.79877       -0.17610
H         -2.94794       -4.25749        0.96342
H         -5.09791       -3.44588        0.16233
H         -5.47147       -4.08340       -1.42577
H         -4.12857       -0.54375       -0.01657
C         -5.15203       -1.90316       -1.37935
C         -3.81392        0.19593       -2.02398
H         -3.16616       -4.08124       -2.09235
H         -5.30275       -1.90122       -2.46768
H         -6.09927       -1.54318       -0.94967
H         -2.95945        0.81799       -1.74959
H         -3.62719       -0.19317       -3.02663
H         -4.69695        0.83715       -2.07467
C         -1.14831        3.94314       -0.22864
C         -0.98257        3.34098       -1.50491
C         -0.57248        2.01892       -1.55799
C         -0.41053        1.28332       -0.41355
C         -0.69424        1.82472        0.81185
C         -1.10558        3.13862        0.94063
O         -1.26937        5.35194       -0.11510
C         -1.23489        4.07012       -2.83543
H         -0.36404        1.54961       -2.50379
H         -0.57377        1.20177        1.68159
C         -1.49924        3.62774        2.34390
C          4.47972       -0.75902        0.87365
C          3.76003        0.44495        1.08061
C          2.44488        0.50070        0.65393
C          1.86637       -0.54891       -0.00980
C          2.58576       -1.67900       -0.29721
C          3.91028       -1.79835        0.09296
O          5.75256       -0.93778        1.47787
C          4.35960        1.66692        1.79370
H          1.84333        1.37007        0.85195
H          2.09171       -2.47451       -0.82790
C          4.69736       -3.05614       -0.30780
C         -2.01792        5.38088       -2.64571
C          0.11123        4.36963       -3.51537
C         -2.08142        3.17131       -3.76388
C         -0.23372        3.78069        3.20439
C         -2.26232        4.96275        2.30611
C         -2.43537        2.58890        3.00191
C         -0.01495        6.00007        0.01606
H         -2.26881        5.83120       -3.60584
H         -2.94456        5.19959       -2.10223
H         -1.43826        6.10858       -2.08276
H         -0.03825        4.87006       -4.47175
H          0.73115        5.01278       -2.89360
H          0.66692        3.45088       -3.70063
H         -1.55944        2.25317       -4.02813
H         -3.02080        2.89991       -3.28348
H         -2.31848        3.68839       -4.69333
H         -0.48606        4.10553        4.21338
H          0.30167        2.83479        3.28120
H          0.44719        4.51394        2.77626
H         -2.61435        5.24236        3.29880
H         -1.62919        5.76860        1.94256
H         -3.12599        4.89288        1.64575
H         -1.93087        1.63978        3.17486
H         -2.79408        2.94526        3.96706
H         -3.30246        2.39811        2.37023
H          0.51098        5.62376        0.89209
H          0.59597        5.81392       -0.86574
H         -0.17414        7.07317        0.12397
C          5.69994       -1.51572        2.77621
C          4.08716        1.55550        3.30154
C          5.87223        1.77684        1.53132
C          3.71564        2.97356        1.27366
C          6.19126       -2.73834       -0.50216
C          4.52126       -4.13260        0.77384
C          4.17977       -3.61765       -1.65183
H          3.01597        1.50571        3.49599
H          4.53977        0.65927        3.71882
H          4.48830        2.41621        3.83601
H          6.28477        2.67643        1.98745
H          6.40930        0.92491        1.94050
H          6.07393        1.81583        0.46138
H          2.66994        3.05411        1.56685
H          4.22798        3.84549        1.67964
H          3.77222        3.02818        0.18681
H          6.32216       -1.94428       -1.23652
H          6.65211       -2.41230        0.42686
H          6.73656       -3.61541       -0.84984
H          4.89523       -3.79012        1.73562
H          3.46840       -4.38439        0.89881
H          5.05754       -5.04357        0.50929
H          3.17194       -4.01969       -1.56013
H          4.81658       -4.42940       -2.00279
H          4.17216       -2.84305       -2.41830
H          6.14114       -0.83094        3.50020
H          4.66702       -1.72592        3.05677
H          6.27604       -2.44082        2.78823
