111
-148.55513598
P         -2.22638       -2.12079       -1.37783
P          0.14394       -0.19431       -0.59695
C         -1.11376       -1.51275       -2.66708
C         -0.09275       -0.65391       -2.32448
C         -2.35743       -3.96449       -1.39131
C         -1.46883       -4.58714       -0.33562
C         -1.28048       -1.90055       -3.98092
H         -2.07032       -2.58793       -4.23685
C         -0.42921       -1.40971       -4.95571
H         -0.55930       -1.70876       -5.98297
C          0.58634       -0.53766       -4.61292
H          1.24896       -0.15496       -5.37165
C          0.75701       -0.16100       -3.29258
H          1.55076        0.51149       -3.00961
Pd        -1.45492       -1.33097        0.64820
Cl        -3.28786       -2.18306        1.61406
Cl        -0.49507       -0.51262        2.50260
C         -3.86406       -4.19518       -1.17732
C         -4.00573       -1.67070       -1.64191
H         -1.54618       -5.67686       -0.34064
H         -0.42063       -4.32029       -0.49126
H         -1.75099       -4.24236        0.66095
H         -4.05861       -4.26797       -0.09822
H         -4.16730       -5.16580       -1.59880
H         -4.31863       -1.16415       -0.71920
C         -4.70903       -3.03686       -1.77830
C         -4.19007       -0.76776       -2.84512
H         -2.05753       -4.28943       -2.39615
H         -4.89036       -3.23574       -2.84328
H         -5.70617       -3.00011       -1.31452
H         -3.92849       -1.29023       -3.76630
H         -5.22658       -0.43615       -2.94129
H         -3.55269        0.11621       -2.78662
C         -1.22454        4.06381        0.25782
C         -2.10357        3.14656       -0.37500
C         -1.62902        1.87577       -0.66020
C         -0.37952        1.48319       -0.25365
C          0.40882        2.31615        0.49738
C          0.00329        3.60435        0.79908
O         -1.53821        5.44785        0.30198
C         -3.55153        3.49873       -0.74976
H         -2.23587        1.16780       -1.19741
H          1.35083        1.94270        0.85648
C          0.89653        4.48766        1.68329
C          4.35129       -1.00851        0.95181
C          4.12832        0.08204        0.07289
C          2.83877        0.30635       -0.37985
C          1.81280       -0.53902       -0.04374
C          2.04819       -1.66014        0.70818
C          3.31356       -1.94430        1.19359
O          5.59803       -1.14122        1.61909
C          5.24998        1.03923       -0.36066
H          2.61476        1.16364       -0.99060
H          1.21789       -2.30661        0.93361
C          3.52540       -3.22832        2.01028
C         -4.08779        4.67839        0.08179
C         -3.61582        3.84048       -2.24586
C         -4.47860        2.29740       -0.45962
C          1.88769        5.25880        0.79906
C          0.05020        5.47323        2.50948
C          1.69250        3.62265        2.68708
C         -1.08977        6.16428       -0.84111
H         -5.13948        4.86462       -0.13448
H         -3.99148        4.47142        1.14707
H         -3.54240        5.59438       -0.12957
H         -2.97623        4.68959       -2.47997
H         -3.28198        2.99729       -2.85009
H         -4.63306        4.08950       -2.54683
H         -4.25701        1.45049       -1.10391
H         -4.37442        1.97088        0.57477
H         -5.52237        2.56303       -0.62514
H          2.56192        5.86378        1.40479
H          2.49060        4.57218        0.20524
H          1.36669        5.92332        0.11335
H          0.67515        6.05565        3.18596
H         -0.48089        6.17225        1.86759
H         -0.68876        4.93833        3.10516
H          1.02501        2.97003        3.24925
H          2.43487        3.00281        2.18719
H          2.22711        4.24974        3.40013
H         -0.57640        7.07120       -0.52097
H         -0.40819        5.54941       -1.43018
H         -1.94072        6.44735       -1.45990
C          5.65760       -0.46879        2.87086
C          6.60320        0.30936       -0.43953
C          4.96522        1.61106       -1.76820
C          5.33519        2.20774        0.63311
C          4.95610       -3.76900        1.83601
C          3.24382       -2.93656        3.49207
C          2.56256       -4.34132        1.53626
H          6.91620       -0.05344        0.53625
H          6.53836       -0.54745       -1.10933
H          7.38486        0.97182       -0.81055
H          4.77406        0.80918       -2.48089
H          4.10649        2.28078       -1.76575
H          5.81687        2.18580       -2.13157
H          5.54096        1.85517        1.64089
H          6.12534        2.90325        0.35141
H          4.39588        2.75886        0.66014
H          5.69426       -3.07147        2.22367
H          5.08551       -4.71295        2.36484
H          5.17680       -3.93719        0.78245
H          2.22360       -2.57743        3.62591
H          3.36887       -3.83369        4.09773
H          3.91543       -2.17364        3.87823
H          1.52665       -4.10954        1.77933
H          2.79887       -5.28888        2.01984
H          2.63883       -4.48724        0.45906
H          4.71050        0.03038        3.07989
H          5.87238       -1.18689        3.66207
H          6.46075        0.26771        2.85278
