105
-153.06687108
Cl        -0.48731        2.03509       -2.99109
Pd         0.39400        1.16021       -1.11080
P          1.39108        0.55456        0.91254
N          1.22595       -1.00729        1.69858
C          0.21059       -1.96165        1.58138
C         -0.20941       -2.48890        0.33111
C         -1.19136       -3.50199        0.30570
C         -1.59816       -4.09276       -1.02462
C         -2.85310       -4.97994       -0.98087
C         -2.83351       -5.90579        0.23785
C         -2.76407       -5.08631        1.53406
C         -1.72616       -3.99284        1.50029
C         -1.28356       -3.47454        2.70998
C         -0.33292       -2.48964        2.75230
H         -0.00028       -2.10066        3.69887
H         -1.70217       -3.85651        3.62576
H         -3.74163       -4.63473        1.73922
H         -3.70928       -6.57028        0.23895
H         -3.74641       -4.34426       -0.93670
H         -1.75709       -3.27619       -1.73774
C          0.51845       -2.15809       -0.92022
C         -0.17293       -1.55270       -2.00797
C          0.48386       -1.43538       -3.23693
C          1.77604       -1.86425       -3.38905
C          2.47065       -2.45091       -2.33869
C          3.87878       -2.92580       -2.59820
C          4.37956       -3.96024       -1.57976
C          4.04971       -3.51950       -0.15129
C          2.53619       -3.32378        0.03515
C          1.84414       -2.60327       -1.09892
H          2.05134       -4.29785        0.17052
H          4.56954       -2.57854        0.06756
H          5.45925       -4.13206       -1.69503
H          4.54660       -2.05670       -2.60435
H          2.26982       -1.74812       -4.33902
H         -0.03080       -0.96679       -4.05738
N         -1.45713       -1.00640       -1.87052
P         -1.67605        0.16002       -0.56645
C         -2.56425       -0.48863        0.83980
C         -3.59450       -1.37609        0.64670
C         -4.32521       -1.82036        1.73405
C         -4.02480       -1.37600        3.01521
C         -3.00050       -0.45265        3.18086
C         -2.27502       -0.00688        2.09136
H         -1.48128        0.71070        2.20665
H         -2.77251       -0.08661        4.16723
C         -4.81164       -1.85369        4.18516
H         -5.13440       -2.51627        1.59312
H         -3.81962       -1.71528       -0.35190
C         -2.63629        1.58782       -1.08454
C         -2.41107        2.79298       -0.46182
C         -3.14464        3.90466       -0.83319
C         -4.11706        3.81101       -1.81969
C         -4.33192        2.58318       -2.43179
C         -3.59673        1.47216       -2.06000
H         -3.77264        0.51573       -2.52465
H         -5.07734        2.50329       -3.20450
C         -4.88490        5.01439       -2.24349
H         -2.96141        4.85451       -0.36063
H         -1.65501        2.86246        0.30475
H         -1.81323       -0.54425       -2.69722
H          1.65677       -0.88666        2.60626
C          0.79638        1.87892        1.96920
C          0.74002        3.15649        1.46398
C          0.24106        4.18508        2.24008
C         -0.19072        3.94298        3.53692
C         -0.11404        2.64943        4.03580
C          0.38553        1.62270        3.25589
H          0.43556        0.61765        3.64056
H         -0.45453        2.45001        5.03756
C         -0.76116        5.04290        4.36286
H          0.18323        5.18362        1.84163
H          1.09702        3.34168        0.46333
C          3.15535        0.77418        0.67563
C          3.87011        1.59448        1.51577
C          5.23135        1.75194        1.32828
C          5.88287        1.09283        0.29442
C          5.14472        0.26059       -0.53550
C          3.78430        0.10358       -0.34351
H          3.20357       -0.53433       -0.98836
H          5.64272       -0.26061       -1.33484
C          7.35153        1.24354        0.10047
H          5.79636        2.39130        1.98484
H          3.36135        2.11039        2.31408
Cl         2.21587        2.44088       -1.49194
H         -2.56098       -5.74418        2.38886
H         -2.95255       -5.56113       -1.90853
H         -1.96027       -6.56760        0.17762
H         -0.75220       -4.66702       -1.42052
H          4.44051       -4.24392        0.57725
H          2.35442       -2.77613        0.96588
H          3.93152       -3.33962       -3.61346
H          3.90384       -4.92865       -1.77984
H         -5.68584       -1.22204        4.34847
H         -5.15819       -2.87706        4.03396
H         -4.21071       -1.83991        5.09558
H         -4.37073        5.53563       -3.05206
H         -5.88025        4.74225       -2.59744
H         -5.00802        5.71462       -1.41610
H         -0.30178        6.00060        4.11410
H         -1.83592        5.13235        4.19882
H         -0.59652        4.86357        5.42624
H          7.70582        2.19722        0.49412
H          7.89363        0.44617        0.61068
H          7.61321        1.20542       -0.95791
