87
-129.18530595
P         -1.67930       -0.36403       -0.12572
P          1.54387        0.33018       -0.20115
C         -1.44120        0.97059       -1.32401
C          1.30603       -0.65223       -1.68608
C         -0.49854        0.93178       -2.34979
C         -0.30018        2.08508       -3.13369
C         -1.06828        3.21111       -2.89375
C         -2.00861        3.22699       -1.88749
C         -2.18324        2.10633       -1.09986
C          2.10053       -1.75064       -1.90534
C          1.92749       -2.51437       -3.04257
C          0.95334       -2.16944       -3.95569
C          0.13949       -1.06714       -3.75216
C          0.32283       -0.28324       -2.59526
Cl         1.30189        1.17924        2.91578
Cl        -1.35083       -0.72503        3.11205
H         -2.59462        4.11306       -1.70608
H         -2.90088        2.12067       -0.29608
H          2.86266       -2.00937       -1.18940
H          2.54834       -3.37863       -3.21278
H         -0.91429        4.08732       -3.50054
H          0.81076       -2.76607       -4.84068
C         -0.85404       -4.59475       -1.56267
C         -0.35261       -4.17508       -0.33817
C         -0.63823       -2.88304        0.08491
C         -1.38735       -2.03851       -0.70202
C         -1.90675       -2.47220       -1.89860
C         -1.63714       -3.75677       -2.33250
H         -0.62814       -5.58931       -1.90768
C          0.50766       -5.06796        0.48451
H         -0.30012       -2.54684        1.05018
H         -2.50123       -1.79823       -2.49456
H         -2.02648       -4.09819       -3.27758
C         -5.79936       -0.04104        1.78620
C         -5.56179       -0.98840        0.81007
C         -4.30898       -1.08574        0.23404
C         -3.30375       -0.23882        0.63930
C         -3.53957        0.70745        1.60992
C         -4.79417        0.82411        2.19566
H         -6.77152        0.03036        2.24349
H         -6.35037       -1.65430        0.49994
H         -4.10790       -1.82372       -0.52536
H         -2.73844        1.35125        1.93375
C         -5.03121        1.82252        3.27342
C          4.91002       -1.46725        2.29191
C          5.03810       -0.18664        1.79114
C          4.02257        0.36147        1.03070
C          2.89088       -0.37524        0.77204
C          2.75993       -1.64955        1.27390
C          3.76607       -2.21434        2.04705
H          5.70079       -1.89654        2.88320
H          5.92701        0.38719        1.99600
H          4.10418        1.36401        0.64412
H          1.86949       -2.21598        1.06215
C          3.62126       -3.59964        2.57128
C          2.40268        4.64102       -1.34103
C          3.13267        3.61782       -1.91366
C          2.88227        2.30669       -1.55322
C          1.90891        2.03415       -0.62098
C          1.18609        3.05069       -0.04172
C          1.42458        4.37371       -0.39292
H          2.58625        5.66171       -1.63041
H          3.88994        3.83912       -2.64778
H          3.42865        1.49283       -2.00378
H          0.42367        2.81810        0.68241
C          0.60973        5.46928        0.19831
Pd        -0.06432        0.12275        1.48569
C          0.72719        2.12822       -4.21159
C         -0.91230       -0.74203       -4.75506
H          0.26274        2.05253       -5.19545
H          1.28707        3.06384       -4.17617
H          1.44592        1.31413       -4.11284
H         -0.46929       -0.33482       -5.66475
H         -1.47756       -1.63422       -5.02836
H         -1.62167       -0.00963       -4.36815
H          0.23254       -6.11480        0.34896
H          1.55676       -4.95600        0.20694
H          0.41340       -4.83529        1.54618
H         -4.71250        1.42935        4.23976
H         -4.47490        2.74187        3.08474
H         -6.08798        2.08313        3.34661
H          4.30546       -3.78320        3.40070
H          2.60736       -3.77445        2.93411
H          3.83203       -4.33318        1.79186
H          0.29708        5.22108        1.21364
H          1.17508        6.40111        0.24380
H         -0.28767        5.64713       -0.39600
