111
-148.55901246
P         -2.40976       -2.45846       -0.14021
P         -0.07624       -0.31647       -0.46927
C         -1.66757       -2.17228       -1.76553
C         -0.68726       -1.21513       -1.90949
C         -2.47721       -4.25579        0.28342
C         -1.47997       -4.58060        1.37425
C         -2.10632       -2.88273       -2.86417
H         -2.87284       -3.63088       -2.74180
C         -1.56518       -2.62411       -4.11183
H         -1.90742       -3.17728       -4.97118
C         -0.59378       -1.65233       -4.25755
H         -0.17669       -1.44609       -5.22950
C         -0.15538       -0.94392       -3.15303
H          0.59891       -0.17862       -3.25110
Pd        -1.36206       -1.02223        1.32815
Cl        -2.85819       -1.69608        2.86071
Cl        -0.34323        0.49021        2.63829
C         -3.95038       -4.46620        0.68176
C         -4.21574       -2.04589       -0.10794
H         -1.51825       -5.63737        1.64926
H         -0.45914       -4.34689        1.06159
H         -1.68845       -3.99683        2.27305
H         -4.03652       -4.37039        1.77290
H         -4.26752       -5.49429        0.44988
H         -4.37655       -1.47176        0.81420
C         -4.88560       -3.42820       -0.00096
C         -4.62980       -1.23645       -1.31888
H         -2.24332       -4.80312       -0.63902
H         -5.14396       -3.77588       -1.01060
H         -5.84257       -3.34854        0.53681
H         -4.04329       -0.31903       -1.40199
H         -4.47556       -1.80386       -2.23789
H         -5.68642       -0.96246       -1.27467
C         -0.96347        4.13981       -0.70757
C          0.30017        3.65339       -1.13145
C          0.54474        2.29342       -1.03543
C         -0.43448        1.42824       -0.62305
C         -1.69512        1.87888       -0.33083
C         -2.00162        3.22814       -0.38695
O         -1.17734        5.53696       -0.56782
C          1.41016        4.57545       -1.66051
H          1.51484        1.88996       -1.26907
H         -2.43772        1.15995       -0.03161
C         -3.42759        3.68327       -0.04004
C          4.38384       -0.97341        0.25753
C          3.63046       -0.13682        1.11888
C          2.27326       -0.00715        0.88146
C          1.67605       -0.59905       -0.19991
C          2.41998       -1.33192       -1.08823
C          3.78163       -1.51053       -0.90869
O          5.72904       -1.29806        0.57812
C          4.25027        0.60660        2.31258
H          1.64807        0.54370        1.56103
H          1.91819       -1.77339       -1.92997
C          4.57931       -2.29563       -1.96244
C          0.81831        5.79595       -2.38869
C          2.29448        5.03288       -0.49082
C          2.29600        3.82803       -2.68353
C         -4.45731        2.59119       -0.40903
C         -3.51819        3.94681        1.47096
C         -3.81441        4.94860       -0.82651
C         -0.82672        6.05072        0.71116
H          1.60495        6.41471       -2.81976
H          0.15678        5.47840       -3.19399
H          0.24216        6.42163       -1.71177
H          1.71664        5.57615        0.25287
H          2.74955        4.17598        0.00455
H          3.09493        5.68552       -0.83835
H          2.88172        3.04057       -2.21148
H          1.68734        3.37981       -3.46846
H          3.00156        4.51106       -3.15603
H         -5.47475        2.96125       -0.28479
H         -4.33873        2.28172       -1.44705
H         -4.35871        1.71308        0.22753
H         -4.52361        4.25689        1.75428
H         -3.27056        3.04681        2.03353
H         -2.82649        4.72764        1.77733
H         -4.84654        5.23458       -0.62552
H         -3.18214        5.79141       -0.55892
H         -3.71126        4.78061       -1.89800
H         -0.05748        6.81481        0.60081
H         -1.70012        6.51208        1.17174
H         -0.45642        5.25075        1.35365
C          5.86965       -2.45518        1.39287
C          5.70862        1.00448        2.02212
C          3.47693        1.91425        2.60051
C          4.17973       -0.28654        3.56031
C          6.01702       -1.75807       -2.08212
C          4.59997       -3.78344       -1.58066
C          3.92958       -2.15542       -3.35828
H          6.33896        0.12999        1.88243
H          5.76830        1.60702        1.11633
H          6.12758        1.58478        2.84383
H          3.98870        2.50815        3.35736
H          3.39356        2.52045        1.69934
H          2.47363        1.71670        2.97482
H          3.14615       -0.54459        3.79007
H          4.72727       -1.21432        3.41354
H          4.60188        0.22029        4.42765
H          6.57108       -1.89708       -1.15716
H          6.56295       -2.27175       -2.87306
H          6.01052       -0.69287       -2.31083
H          5.07189       -3.93597       -0.61315
H          3.58657       -4.17982       -1.52116
H          5.14869       -4.36833       -2.31841
H          2.96600       -2.66052       -3.40762
H          4.56244       -2.60062       -4.12569
H          3.78189       -1.10642       -3.61390
H          6.49152       -3.18906        0.88048
H          6.36138       -2.18740        2.32788
H          4.89306       -2.89118        1.60692
