45
-71.81566085
C          0.46091        1.70163        2.93816
P         -0.19905        0.74268        1.53325
P         -0.02746        0.83856       -1.61310
C          0.74365        1.79056       -2.96595
Cl         2.81304       -0.37062        1.73727
H          0.87500        2.64084        2.58266
H          1.12786        2.73034       -2.57975
Cl         3.18166        0.02091       -1.44433
C         -1.39154        1.72898        0.60415
C         -1.31379        1.77530       -0.77014
C         -2.23707        2.49963       -1.49558
C         -3.23689        3.19253       -0.83574
C         -3.31132        3.15257        0.54315
C         -2.38795        2.41762        1.26577
H         -2.17487        2.51304       -2.57174
H         -3.95887        3.76086       -1.39872
H         -4.09054        3.69109        1.05698
H         -2.44043        2.37371        2.34168
Pd         1.51388        0.29821        0.02744
H          0.01464        1.99940       -3.74359
H          1.24427        1.13523        3.43372
H          1.56643        1.22433       -3.39316
C         -1.73469       -3.19758       -2.82170
C         -1.15400       -2.40221       -3.79072
C         -0.62782       -1.16887       -3.44993
C         -0.68822       -0.74176       -2.14309
C         -1.26585       -1.53031       -1.17641
C         -1.79142       -2.76404       -1.51205
H         -2.14233       -4.15910       -3.08798
H         -1.10867       -2.74260       -4.81221
H         -0.16930       -0.54158       -4.19665
H         -1.29080       -1.17867       -0.15988
H         -2.23891       -3.38321       -0.75210
C         -1.96764       -3.23592        2.84014
C         -2.80875       -2.18896        2.51715
C         -2.27756       -0.96980        2.13718
C         -0.91185       -0.80787        2.08319
C         -0.07109       -1.84828        2.40364
C         -0.59798       -3.06796        2.78511
H         -2.38116       -4.18651        3.13512
H         -3.87740       -2.32176        2.55752
H         -2.92143       -0.14807        1.86945
H          0.99460       -1.69795        2.33805
H          0.05911       -3.88496        3.03395
H         -0.32976        1.90926        3.65331
