111
-148.55466153
P         -1.74098       -2.70320       -0.04625
P         -0.41223        0.12644       -0.60775
C         -1.64688       -2.06234       -1.74280
C         -1.12490       -0.80699       -1.97591
C         -0.69656       -4.21550        0.15094
C          0.48095       -3.93872        1.06153
C         -2.07098       -2.83738       -2.80297
H         -2.44568       -3.83098       -2.61838
C         -1.99246       -2.34228       -4.09330
H         -2.32677       -2.94593       -4.92123
C         -1.48114       -1.07902       -4.32197
H         -1.41554       -0.69606       -5.32706
C         -1.03697       -0.31193       -3.25973
H         -0.60708        0.66415       -3.42193
Pd        -1.29707       -0.86702        1.27332
Cl        -1.79503       -2.16458        3.03546
Cl        -1.01847        1.05899        2.39174
C         -1.68766       -5.26251        0.69777
C         -3.39926       -3.38543        0.41108
H          1.10038       -4.82848        1.19680
H          1.11362       -3.14230        0.66462
H          0.13873       -3.61961        2.04781
H         -1.57346       -5.31701        1.78911
H         -1.42978       -6.26536        0.32514
H         -3.57186       -3.07109        1.44916
C         -3.16261       -4.90546        0.35425
C         -4.50626       -2.87329       -0.48578
H         -0.36060       -4.48744       -0.85837
H         -3.40414       -5.26535       -0.65534
H         -3.86047       -5.42632        1.02765
H         -5.47902       -3.26612       -0.18130
H         -4.55945       -1.78230       -0.46468
H         -4.34334       -3.17230       -1.52167
C         -0.85482        4.65218       -0.78043
C          0.43946        4.07331       -0.81424
C          0.54144        2.69328       -0.76389
C         -0.57632        1.90073       -0.74803
C         -1.82910        2.45080       -0.81593
C         -2.00306        3.82440       -0.87417
O         -0.99939        6.05567       -0.61654
C          1.72336        4.91687       -0.85606
H          1.50413        2.21544       -0.71665
H         -2.67640        1.78633       -0.80449
C         -3.42667        4.39070       -0.99350
C          3.75404       -1.45759        0.29968
C          3.19825       -0.43083        1.10564
C          1.93010        0.02949        0.79593
C          1.26674       -0.42109       -0.31414
C          1.84030       -1.33856       -1.15466
C          3.10044       -1.85121       -0.89650
O          4.93680       -2.12568        0.71425
C          3.91590        0.15258        2.33174
H          1.41454        0.71405        1.44776
H          1.27456       -1.67321       -2.00624
C          3.71281       -2.85858       -1.88185
C          2.86596        4.14149       -1.55101
C          1.50789        6.21316       -1.65796
C          2.16153        5.24688        0.57900
C         -4.33604        3.41771       -1.77828
C         -4.01426        4.58342        0.41293
C         -3.43395        5.72500       -1.76149
C         -1.08987        6.47471        0.73956
H          2.55013        3.77949       -2.52908
H          3.73534        4.78233       -1.69641
H          3.19424        3.28893       -0.95821
H          2.43373        6.78205       -1.73949
H          1.15832        5.98770       -2.66491
H          0.76872        6.85456       -1.18454
H          2.32987        4.33408        1.14954
H          3.08621        5.82342        0.58246
H          1.40339        5.82578        1.10024
H         -5.30748        3.87051       -1.97562
H         -3.88786        3.15611       -2.73649
H         -4.51941        2.49930       -1.22274
H         -4.04061        3.63662        0.95188
H         -3.41746        5.27857        0.99826
H         -5.03099        4.97206        0.36203
H         -2.87781        6.49303       -1.23020
H         -2.97992        5.60415       -2.74444
H         -4.45069        6.09175       -1.90010
H         -0.29369        7.18698        0.95547
H         -2.04460        6.97282        0.90688
H         -1.00413        5.61746        1.40863
C          4.70144       -3.24814        1.55584
C          3.52803        1.63620        2.52828
C          3.49994       -0.63594        3.58287
C          5.44480        0.11135        2.15810
C          3.29758       -4.28202       -1.47956
C          3.21188       -2.58929       -3.31915
C          5.24742       -2.74152       -1.91122
H          3.70095        2.20386        1.61451
H          2.48187        1.74812        2.80853
H          4.12172        2.08978        3.32154
H          3.98293       -0.23727        4.47453
H          2.42143       -0.58268        3.73043
H          3.76949       -1.68586        3.49481
H          5.81017       -0.90989        2.08885
H          5.74147        0.63385        1.24926
H          5.94771        0.58457        3.00109
H          2.21332       -4.38754       -1.50103
H          3.72075       -5.01939       -2.16116
H          3.63407       -4.52215       -0.47391
H          2.15040       -2.80905       -3.42444
H          3.37688       -1.54907       -3.59860
H          3.74034       -3.21661       -4.03665
H          5.68329       -2.99839       -0.94895
H          5.54994       -1.72343       -2.15396
H          5.67737       -3.41028       -2.65646
H          5.18699       -3.09330        2.51916
H          3.63127       -3.39226        1.70862
H          5.12701       -4.14195        1.09993
