45
-71.82030637
C          0.41037        1.45814        3.14626
P         -0.16399        0.74293        1.57088
P         -0.13850        0.78454       -1.58105
C          0.41859        1.52165       -3.15269
Cl         2.88965       -0.24300        1.63941
H          0.81869        2.45005        2.97499
H          1.20477        0.90992       -3.58594
Cl         3.06763        0.32193       -1.59695
C         -1.32079        1.81322        0.68865
C         -1.31333        1.82743       -0.68989
C         -2.22475        2.59942       -1.38080
C         -3.14246        3.36634       -0.68490
C         -3.14965        3.35229        0.69638
C         -2.23944        2.57083        1.38588
H         -2.21857        2.59268       -2.45866
H         -3.85436        3.97154       -1.22171
H         -3.86721        3.94638        1.23803
H         -2.24512        2.54094        2.46339
Pd         1.50139        0.41466        0.00251
H          0.80687        2.52042       -2.97500
H          1.18408        0.82704        3.57423
H         -0.40930        1.57967       -3.85346
C         -1.69661       -3.46555       -1.93796
C         -0.34635       -3.20895       -2.07526
C          0.11836       -1.90928       -1.98992
C         -0.76853       -0.88105       -1.76906
C         -2.11382       -1.12985       -1.62856
C         -2.58183       -2.42856       -1.71634
H         -2.06011       -4.47825       -1.99988
H          0.34494       -4.01857       -2.24182
H          1.17061       -1.68634       -2.07369
H         -2.78807       -0.31076       -1.43663
H         -3.63414       -2.63067       -1.60232
C         -1.87574       -3.45139        1.91508
C         -2.72746       -2.37197        1.78263
C         -2.20997       -1.09192        1.69726
C         -0.84851       -0.90316        1.75042
C          0.00351       -1.97465        1.88341
C         -0.50956       -3.25552        1.96597
H         -2.27819       -4.44936        1.97529
H         -3.79297       -2.52625        1.73694
H         -2.85950       -0.24017        1.57500
H          1.06703       -1.79771        1.90561
H          0.15574       -4.09750        2.06371
H         -0.41536        1.52838        3.84844
