87
-129.18907691
P         -1.65482       -0.35685       -0.22830
P          1.64162        0.36500       -0.07302
C         -1.36156        0.95545       -1.42908
C          1.43286       -0.66994       -1.53182
C         -0.35312        0.86126       -2.38383
C         -0.12487        1.95610       -3.24031
C         -0.91981        3.08372       -3.12636
C         -1.92093        3.15437       -2.18224
C         -2.13425        2.08759       -1.33206
C          2.21581       -1.79350       -1.64190
C          2.06513       -2.64536       -2.71806
C          1.11814       -2.36770       -3.68012
C          0.31479       -1.24377       -3.58807
C          0.47851       -0.36701       -2.49758
Cl         1.24968        0.74196        3.06972
Cl        -1.43891       -1.05951        2.94502
H         -2.52927        4.04034       -2.10208
H         -2.91063        2.13987       -0.58721
H          2.95010       -2.00722       -0.88316
H          2.68011       -3.52647       -2.80089
H         -0.74199        3.91646       -3.78551
H          0.98997       -3.03346       -4.51672
C         -1.48937       -4.51306       -2.05242
C         -0.71551       -4.22890       -0.93556
C         -0.79143       -2.95601       -0.38404
C         -1.61571       -2.00315       -0.93654
C         -2.38968       -2.29596       -2.03463
C         -2.32718       -3.55839       -2.59515
H         -1.42754       -5.49166       -2.49710
C          0.21752       -5.24037       -0.36945
H         -0.19470       -2.71112        0.47810
H         -3.02337       -1.53198       -2.45706
H         -2.92439       -3.79306       -3.46096
C         -5.52927        0.41696        2.03784
C         -5.44806       -0.64629        1.16046
C         -4.27254       -0.88587        0.47416
C         -3.19027       -0.05929        0.66560
C         -3.26829        0.99897        1.54179
C         -4.43840        1.24886        2.24826
H         -6.44458        0.60695        2.57207
H         -6.29926       -1.29038        1.01187
H         -4.19297       -1.71694       -0.20706
H         -2.40939        1.63232        1.69217
C         -4.52084        2.40322        3.18384
C          5.24141       -1.04807        2.33306
C          5.27955        0.17830        1.69933
C          4.18877        0.61171        0.96960
C          3.07217       -0.18506        0.87455
C          3.03027       -1.40560        1.50871
C          4.11364       -1.85342        2.25450
H          6.09086       -1.38873        2.90020
H          6.15758        0.79859        1.77511
H          4.20129        1.57041        0.47781
H          2.14630       -2.01719        1.43297
C          4.06753       -3.18164        2.92413
C          1.84249        4.78046       -1.11408
C          2.68609        3.88680       -1.74458
C          2.63641        2.54388       -1.41917
C          1.74632        2.11054       -0.46492
C          0.91401        2.99934        0.17490
C          0.95019        4.35191       -0.14089
H          1.86908        5.82425       -1.37679
H          3.37586        4.23329       -2.49659
H          3.27381        1.82861       -1.91504
H          0.22435        2.64259        0.92104
C          0.01383        5.30445        0.51476
Pd        -0.06167       -0.10455        1.45215
C          0.95242        1.92821       -4.26852
C         -0.70246       -0.98854       -4.64560
H          0.53599        1.76886       -5.26384
H          1.50111        2.87095       -4.28203
H          1.67240        1.13306       -4.07219
H         -1.24605       -1.90211       -4.89041
H         -1.43514       -0.24706       -4.32530
H         -0.23074       -0.62463       -5.55914
H          0.32920       -5.11102        0.70811
H         -0.14449       -6.25410       -0.54635
H          1.20583       -5.15051       -0.82260
H         -4.77902        3.31823        2.64880
H         -5.27727        2.23598        3.95188
H         -3.56724        2.56517        3.68866
H          4.32313       -3.97799        2.22368
H          4.76826       -3.22833        3.75885
H          3.07049       -3.38565        3.31743
H          0.44560        6.30449        0.57388
H         -0.92129        5.37253       -0.04293
H         -0.22326        4.98479        1.53059
