58
-89.86792102
P          1.64226        0.30232        0.86957
C          3.06310        1.37007        0.61895
C          4.19277        0.87732        0.00637
C          5.28116        1.70555       -0.19989
C          5.22819        3.02394        0.20740
C          4.09125        3.51523        0.81827
C          3.00438        2.68389        1.02364
H          2.10467        3.05816        1.48596
H          4.21701       -0.15202       -0.31250
C          1.98271       -1.36030        0.27393
C          2.27960       -2.38616        1.14197
C          2.51513       -3.65668        0.64854
C          2.46253       -3.88938       -0.71154
C          2.18391       -2.85369       -1.58067
C          1.94610       -1.58520       -1.08402
H          1.73237       -0.76363       -1.74953
H          2.34167       -2.19186        2.20012
C          1.19583        0.33856        2.65145
C          0.05958       -0.59466        3.03814
C         -1.31840       -0.11309        2.61476
P         -1.66325       -0.24832        0.81511
C         -3.32343        0.36718        0.52396
C         -4.30470       -0.48407        0.07001
C         -5.57944       -0.00086       -0.16417
C         -5.86025        1.33308        0.05706
C         -4.87136        2.18375        0.51070
C         -3.59727        1.69738        0.74469
H         -2.81140        2.35154        1.08844
H         -4.06781       -1.52109       -0.10496
C         -1.47720       -1.92247        0.18477
C         -1.38017       -3.01060        1.02193
C         -1.21268       -4.27489        0.48652
C         -1.15397       -4.44286       -0.88300
C         -1.27024       -3.35130       -1.72008
C         -1.43407       -2.08911       -1.18082
H         -1.53103       -1.22263       -1.81579
H         -1.44960       -2.87525        2.08848
Pd        -0.13156        0.90847       -0.48723
Cl         1.25005        2.25562       -1.63037
Cl        -1.82350        1.17295       -1.94868
H         -2.10820       -0.68441        3.10888
H         -1.46466        0.93123        2.89639
H          0.24493       -1.58942        2.61627
H          0.06893       -0.73879        4.12990
H          2.11447        0.08872        3.18819
H          0.95232        1.37039        2.91035
H          6.16621        1.32294       -0.68112
H          4.04724        4.54591        1.12971
H          2.73996       -4.46405        1.32596
H          2.14566       -3.03268       -2.64258
H         -6.34979       -0.66379       -0.52241
H         -5.08906        3.22585        0.67765
H         -1.12739       -5.12843        1.13884
H         -1.22858       -3.48008       -2.78908
H          6.07403        3.67177        0.04429
H          2.64170       -4.88039       -1.09551
H         -6.85219        1.71185       -0.12821
H         -1.01924       -5.42791       -1.29914
