105
-153.06968444
Cl        -0.97118        2.14415       -2.81780
Pd         0.04870        1.55598       -0.89056
P          1.39645        0.75350        0.83014
N          0.58846       -0.43246        1.84146
C          0.01401       -1.67827        1.63198
C         -0.12180       -2.29105        0.36142
C         -0.82800       -3.50719        0.25029
C         -0.96871       -4.14082       -1.11294
C         -2.04335       -5.23635       -1.18917
C         -1.93598       -6.19127        0.00330
C         -2.10378       -5.43228        1.32865
C         -1.34781       -4.12817        1.38810
C         -1.16677       -3.52957        2.62751
C         -0.50572       -2.33509        2.74718
H         -0.40197       -1.87331        3.71372
H         -1.57287       -4.00892        3.50220
H         -3.16625       -5.22660        1.50433
H         -2.67337       -7.00229       -0.07962
H         -3.03705       -4.77113       -1.19221
H         -1.18786       -3.35469       -1.84576
C          0.63379       -1.81298       -0.82148
C         -0.03573       -1.16321       -1.89405
C          0.68380       -0.90285       -3.06396
C          2.00005       -1.26771       -3.18153
C          2.65803       -1.94166       -2.15966
C          4.08118       -2.38646       -2.40499
C          4.74870       -3.12187       -1.22897
C          3.74004       -3.96602       -0.44485
C          2.60212       -3.08454        0.08826
C          1.96735       -2.23157       -0.98184
H          1.83427       -3.70923        0.56086
H          4.23396       -4.50805        0.37407
H          5.20174       -2.39085       -0.55013
H          4.67540       -1.50831       -2.68748
H          2.53740       -1.04827       -4.08861
H          0.19325       -0.38279       -3.86783
N         -1.37559       -0.76120       -1.81438
P         -1.87906        0.22065       -0.43479
C         -2.83439       -0.74975        0.72934
C         -3.53985       -1.82371        0.24350
C         -4.33499       -2.56653        1.09736
C         -4.43431       -2.22642        2.43972
C         -3.72357       -1.12816        2.90672
C         -2.93298       -0.38353        2.05019
H         -2.38856        0.47524        2.40683
H         -3.78953       -0.86235        3.94791
C         -5.24920       -3.05352        3.37159
H         -4.87835       -3.41839        0.72589
H         -3.45526       -2.07922       -0.80092
C         -3.00765        1.52647       -0.93264
C         -2.96520        2.73667       -0.28106
C         -3.83758        3.74414       -0.65058
C         -4.75657        3.54333       -1.67202
C         -4.79696        2.30609       -2.30088
C         -3.92334        1.29938       -1.93123
H         -3.95500        0.33668       -2.41556
H         -5.51675        2.13637       -3.08331
C         -5.71033        4.61928       -2.05941
H         -3.80787        4.69511       -0.14676
H         -2.24891        2.89019        0.51099
H         -1.72354       -0.26795       -2.62660
H          0.76995       -0.16536        2.80132
C          1.35404        2.28696        1.76502
C          2.43294        3.13824        1.78645
C          2.35045        4.33225        2.47890
C          1.18739        4.68016        3.15337
C          0.10335        3.81377        3.10654
C          0.18894        2.61910        2.41476
H         -0.65046        1.94422        2.37091
H         -0.80919        4.08211        3.61094
C          1.08806        5.98011        3.87291
H          3.18957        5.00661        2.49334
H          3.33017        2.87168        1.25203
C          3.13066        0.31225        0.68970
C          3.73043       -0.29150        1.76975
C          5.08208       -0.58610        1.73355
C          5.84344       -0.27022        0.61659
C          5.22533        0.35984       -0.45467
C          3.87512        0.64990       -0.41490
H          3.40294        1.17039       -1.22977
H          5.81052        0.62977       -1.31711
C          7.30203       -0.56781        0.58313
H          5.55448       -1.06081        2.57645
H          3.13825       -0.52779        2.63947
Cl         1.87174        2.68464       -1.57520
H         -1.78635       -6.06293        2.16900
H         -1.97356       -5.78757       -2.13757
H         -0.95491       -6.68258       -0.01354
H          0.00335       -4.55358       -1.40765
H          3.32287       -4.73872       -1.10278
H          2.97648       -2.43423        0.88463
H          4.08632       -3.03542       -3.28907
H          5.58302       -3.74401       -1.58235
H         -4.64324       -3.84356        3.81745
H         -5.65979       -2.44700        4.18003
H         -6.08574       -3.52345        2.85254
H         -5.31099        5.60575       -1.81986
H         -5.91294        4.59641       -3.13109
H         -6.65937        4.50351       -1.53415
H          2.06063        6.29474        4.25393
H          0.71749        6.76233        3.20904
H          0.40737        5.90902        4.72245
H          7.64531       -0.74079       -0.43788
H          7.87630        0.26301        0.99520
H          7.53501       -1.46033        1.16565
