58
-89.86869343
P          1.61269        0.27005        0.93551
C          2.98913        1.38967        0.66821
C          4.19630        0.90476        0.21951
C          5.24908        1.77531        0.00274
C          5.08305        3.12631        0.23602
C          3.86903        3.60827        0.68457
C          2.81788        2.73493        0.90114
H          1.86050        3.09760        1.24119
H          4.30807       -0.15146        0.03507
C          1.98315       -1.37037        0.29782
C          2.20127       -2.44411        1.13056
C          2.45401       -3.69148        0.58908
C          2.49580       -3.85384       -0.78172
C          2.29456       -2.77076       -1.61376
C          2.04035       -1.52581       -1.06908
H          1.88483       -0.66534       -1.70137
H          2.18874       -2.30603        2.19896
C          1.19430        0.28101        2.72145
C          0.01616       -0.60307        3.09001
C         -1.33138       -0.06543        2.63726
P         -1.65301       -0.19936        0.83103
C         -3.31079        0.42247        0.53411
C         -4.28644       -0.41970        0.05195
C         -5.55893        0.06742       -0.18606
C         -5.84314        1.39638        0.05947
C         -4.85983        2.23811        0.54109
C         -3.58800        1.74775        0.77890
H         -2.80650        2.39512        1.14472
H         -4.04692       -1.45277       -0.14167
C         -1.48008       -1.88132        0.21336
C         -1.43779       -2.96561        1.06004
C         -1.27340       -4.23652        0.53959
C         -1.16269       -4.41500       -0.82533
C         -1.22656       -3.32741       -1.67303
C         -1.38919       -2.05890       -1.14869
H         -1.45227       -1.19687       -1.79368
H         -1.54956       -2.82210        2.12195
Pd        -0.08380        0.89781       -0.49632
Cl         1.33803        1.86675       -1.93402
Cl        -1.82881        1.22126       -1.88772
H         -2.15354       -0.59900        3.12075
H         -1.43778        0.98611        2.90970
H          0.16829       -1.60569        2.67365
H         -0.00028       -0.74386        4.18213
H          2.10380       -0.02688        3.24320
H          1.00361        1.31725        3.00638
H          6.19495        1.39961       -0.35142
H          3.73784        4.66318        0.86112
H          2.61769       -4.53643        1.23760
H          2.33055       -2.89428       -2.68358
H         -6.32482       -0.58854       -0.56603
H         -5.08015        3.27641        0.72712
H         -1.23155       -5.08707        1.19998
H         -1.14635       -3.46443       -2.73881
H          5.90138        3.80640        0.06423
H          2.68865       -4.82706       -1.20279
H         -6.83333        1.77828       -0.12863
H         -1.03017       -5.40521       -1.22974
