58
-89.86869071
P          1.88673       -0.22716        0.43778
C          1.56165        1.51565        0.76586
C          1.13195        2.30347       -0.27799
C          0.85244        3.64129       -0.06721
C          1.01028        4.18550        1.19097
C          1.45483        3.39717        2.23310
C          1.73578        2.06047        2.01762
H          2.09914        1.44734        2.82524
H          1.01581        1.86880       -1.25836
C          3.47073       -0.41477       -0.38734
C          4.20557        0.70041       -0.72136
C          5.42272        0.55738       -1.36270
C          5.89495       -0.70394       -1.66728
C          5.15365       -1.82007       -1.33328
C          3.93715       -1.67334       -0.69071
H          3.33967       -2.53596       -0.44153
H          3.82332        1.67911       -0.48114
C          1.85711       -1.25240        1.97048
C          0.46606       -1.65976        2.43768
C         -0.52113       -0.50246        2.54575
P         -1.40117       -0.22318        0.94953
C         -1.95691        1.47484        0.76371
C         -2.33822        1.89824       -0.48852
C         -2.76882        3.19800       -0.67788
C         -2.82010        4.06517        0.39537
C         -2.44822        3.63378        1.65364
C         -2.01731        2.33244        1.83882
H         -1.72861        1.98548        2.81742
H         -2.29847        1.20042       -1.30947
C         -2.79778       -1.35109        0.89393
C         -4.04599       -0.87914        1.23145
C         -5.13585       -1.73071        1.20031
C         -4.96612       -3.05051        0.83136
C         -3.71185       -3.51970        0.49424
C         -2.62389       -2.66608        0.52739
H         -1.64286       -3.01817        0.25216
H         -4.16239        0.15524        1.51357
Pd         0.00669       -0.70487       -0.83548
Cl         1.37049       -1.46297       -2.44417
Cl        -1.86108       -0.95331       -2.06384
H         -1.30083       -0.69799        3.28641
H         -0.01784        0.41527        2.84918
H          0.05243       -2.41153        1.75138
H          0.54900       -2.17614        3.40692
H          2.47565       -2.13232        1.77932
H          2.37455       -0.67989        2.74157
H          0.50520        4.25435       -0.88255
H          1.58356        3.82292        3.21471
H          5.99903        1.42903       -1.62611
H          5.51815       -2.80429       -1.57762
H         -3.06302        3.53118       -1.65947
H         -2.49018        4.31089        2.49092
H         -6.11473       -1.36324        1.46111
H         -3.58024       -4.54825        0.20093
H          0.78654        5.22627        1.35956
H          6.84168       -0.81738       -2.16986
H         -3.15294        5.08011        0.25124
H         -5.81444       -3.71483        0.80367
