64
-97.21769555
Cl        -1.35733       -0.54158       -2.83114
Cl         1.87710       -0.71656       -2.93702
P          1.95867       -0.59258        0.31635
C          2.19240       -2.33463        0.89893
C          3.73898       -0.06748        0.19932
P         -1.28549       -0.30634        0.33959
C          1.14227        0.45430        1.57579
C         -0.29751        0.61823        1.57291
C         -0.65243        1.58917        2.59687
C          0.58463        2.07294        3.18390
C          1.69238        1.36158        2.56991
H         -1.66332        1.89039        2.87799
H          0.66528        2.81021        3.98584
Pd         0.30933       -0.71565       -1.34222
H          2.75125        1.48966        2.80192
C         -5.17949        1.72872       -0.89191
C         -4.91532        0.42626       -1.26558
C         -3.72973       -0.17385       -0.88041
C         -2.81299        0.52729       -0.13049
C         -3.08019        1.82320        0.24896
C         -4.26278        2.42849       -0.13314
H         -6.10147        2.19918       -1.19256
H         -5.62858       -0.12206       -1.85879
H         -3.50956       -1.18923       -1.16955
H         -2.36141        2.36209        0.84028
H         -4.46722        3.44508        0.16054
C         -2.35824       -4.43937        1.88606
C         -2.05652       -4.26227        0.54968
C         -1.73681       -3.00238        0.07764
C         -1.71778       -1.93457        0.94485
C         -2.02539       -2.10189        2.27514
C         -2.34577       -3.36135        2.74991
H         -2.60727       -5.42094        2.25518
H         -2.07160       -5.10250       -0.12492
H         -1.51224       -2.84236       -0.96487
H         -2.00577       -1.24871        2.93482
H         -2.58373       -3.49991        3.79178
C          4.21815        0.07517       -1.22859
H          3.82211        0.89129        0.72767
C          4.47335       -1.18727        0.96279
H          4.57052       -0.91636        2.02435
C          3.71846       -2.53773        0.84268
H          5.50153       -1.28181        0.58398
C          1.61633       -2.50623        2.28780
H          1.67541       -2.98583        0.18079
H          4.02850       -3.22844        1.64010
H          3.99751       -3.02905       -0.10078
H          1.74403       -3.52804        2.65287
H          2.11116       -1.83595        2.99347
H          0.55084       -2.27187        2.30836
H          5.27738        0.33786       -1.27069
H          4.08922       -0.86366       -1.76944
H          3.66354        0.84298       -1.76950
Fe         0.57322        2.37190        1.14833
C          1.26103        2.40844       -0.84624
C          1.99966        3.30094        0.02631
C          1.08334        4.28486        0.58086
C         -0.25258        3.92890        0.13502
C         -0.13984        2.75394       -0.71353
H          1.66340        1.60939       -1.46983
H          3.08501        3.30674        0.15180
H          1.34699        5.12055        1.23300
H         -1.17265        4.47003        0.36855
H         -0.95531        2.27020       -1.25572
