171
-217.84424457
P         -1.58471        0.36386       -0.37351
P          1.64785       -0.31272       -0.30698
C         -0.85837        1.42431       -1.62834
C          1.02942       -1.20843       -1.73234
C         -0.00157        0.90358       -2.59140
C          0.62964        1.79061       -3.48414
C          0.34862        3.14488       -3.40890
C         -0.52803        3.63730       -2.46597
C         -1.12344        2.77121       -1.57079
C          1.31113       -2.54835       -1.83629
C          0.80623       -3.28284       -2.89133
C          0.00060       -2.66856       -3.82670
C         -0.29439       -1.31813       -3.73983
C          0.24782       -0.56170       -2.68257
Cl         1.56729        0.43170        2.87124
Cl        -1.66200       -0.34441        2.79991
C         -1.17399       -0.69681       -4.76789
C          1.57893        1.29487       -4.51749
H         -0.74382        4.69237       -2.42252
H         -1.80170        3.14960       -0.82380
H          1.92932       -3.02145       -1.09031
H          1.03590       -4.33220       -2.97886
H          0.82681        3.81714       -4.10122
H         -0.41093       -3.24069       -4.64113
C         -3.63276       -3.36746       -1.89194
C         -2.68381       -3.48987       -0.88384
C         -2.03119       -2.33733       -0.46679
C         -2.33574       -1.12272       -1.02873
C         -3.27914       -1.01666       -2.02080
C         -3.95111       -2.14604       -2.47337
H         -4.15601       -4.24278       -2.22733
H         -1.28752       -2.38066        0.30998
H         -3.49689       -0.04161       -2.42282
C         -4.67331        2.58325        2.10773
C         -3.34249        2.97874        2.18691
C         -2.41634        2.31008        1.39729
C         -2.80688        1.27532        0.58464
C         -4.12235        0.88839        0.53187
C         -5.08636        1.53836        1.28913
H         -5.40384        3.09585        2.70313
H         -1.37550        2.58442        1.43127
H         -4.40111        0.06154       -0.09727
C          4.18879       -2.87775        2.45042
C          2.84748       -3.19964        2.27860
C          2.10291       -2.43234        1.39272
C          2.67540       -1.37766        0.72490
C          4.00012       -1.07113        0.91246
C          4.78599       -1.81523        1.78212
H          4.77923       -3.46079        3.13036
H          1.05672       -2.64136        1.24520
H          4.42110       -0.22986        0.39094
C          3.94876        3.44693       -1.31535
C          2.84068        3.53757       -0.48219
C          2.14632        2.36940       -0.19521
C          2.53783        1.17588       -0.74767
C          3.62420        1.10491       -1.58486
C          4.36696        2.24367       -1.87228
H          4.50506        4.34205       -1.52003
H          1.29684        2.37847        0.46549
H          3.90219        0.15111       -2.00176
Pd        -0.00716       -0.01554        1.32184
C         -0.95742       -5.29014       -0.77562
C         -2.32863       -4.84103       -0.24692
C         -3.37194       -5.92262       -0.58919
C         -2.27459       -4.69868        1.28764
H         -0.64960       -6.23206       -0.32201
H         -0.98984       -5.42922       -1.85595
H         -0.19592       -4.54237       -0.55960
H         -3.14154       -6.85711       -0.07764
H         -4.37049       -5.61202       -0.28197
H         -3.38829       -6.13301       -1.65820
H         -2.06979       -5.65876        1.76105
H         -1.49432       -4.00712        1.60015
H         -3.22401       -4.32793        1.67322
C         -5.19757       -0.64974       -4.11327
C         -5.06923       -2.06779       -3.52271
C         -6.40523       -2.44098       -2.85435
C         -4.77453       -3.04965       -4.67273
H         -5.97666       -0.61730       -4.87477
H         -5.46225        0.07483       -3.34364
H         -4.26587       -0.33193       -4.57986
H         -7.22841       -2.38177       -3.56612
H         -6.37729       -3.45543       -2.45792
H         -6.62414       -1.76592       -2.02724
H         -3.81191       -2.83083       -5.13297
H         -4.74962       -4.08010       -4.32093
H         -5.53969       -2.98338       -5.44603
C         -3.98326        4.58517        4.05560
C         -2.86859        4.11878        3.09930
C         -2.43558        5.30893        2.22636
C         -1.67669        3.63465        3.94974
H         -4.34279        3.75854        4.66821
H         -3.61640        5.36118        4.72734
H         -4.82683        5.00172        3.50576
H         -3.27175        5.67430        1.63047
H         -2.07030        6.13257        2.83950
H         -1.64081        5.02089        1.54037
H         -1.95026        2.75140        4.52643
H         -0.82010        3.37461        3.32983
H         -1.35519        4.40799        4.64698
C         -7.03900        1.23670       -0.25233
C         -6.54601        1.07150        1.19727
C         -7.46647        1.88703        2.12502
C         -6.62961       -0.41175        1.60548
H         -8.07738        0.92060       -0.35047
H         -6.97121        2.27825       -0.56579
H         -6.44268        0.64122       -0.94243
H         -8.49692        1.53990        2.04949
H         -7.16061        1.78784        3.16635
H         -7.45483        2.94394        1.85938
H         -6.04092       -1.04109        0.93894
H         -6.25201       -0.55340        2.61788
H         -7.65927       -0.76758        1.57519
C          1.00814       -3.71332        3.89758
C          2.15385       -4.32103        3.06504
C          3.12626       -5.03699        4.02170
C          1.58650       -5.35767        2.08003
H          0.26669       -3.23122        3.26196
H          0.49906       -4.47994        4.48121
H          1.39136       -2.96094        4.58645
H          2.61512       -5.82704        4.57176
H          3.94898       -5.49616        3.47393
H          3.54046       -4.34229        4.75216
H          0.85582       -4.90347        1.41437
H          2.38035       -5.78246        1.46597
H          1.09377       -6.17290        2.60959
C          7.02172       -1.71099        0.66370
C          6.26237       -1.43885        1.97358
C          6.91853       -2.25569        3.10353
C          6.36841        0.05608        2.33480
H          8.07375       -1.44220        0.75736
H          6.96365       -2.76595        0.39641
H          6.59956       -1.13599       -0.15873
H          6.39384       -2.10847        4.04739
H          6.92106       -3.32021        2.87039
H          7.95468       -1.95049        3.24934
H          5.99358        0.68977        1.53218
H          5.79020        0.27603        3.23197
H          7.40399        0.33940        2.52198
C          1.13033        4.78565        0.92347
C          2.44427        4.88971        0.12559
C          2.24693        5.92287       -0.99951
C          3.55966        5.36065        1.07542
H          0.31914        4.43173        0.28831
H          1.23423        4.10242        1.76604
H          0.84163        5.75782        1.32264
H          3.16989        6.09133       -1.55272
H          1.49121        5.58213       -1.70618
H          1.92295        6.88182       -0.59546
H          3.30333        6.31434        1.53645
H          3.71963        4.63255        1.87050
H          4.50223        5.48767        0.54396
C          6.37408        3.47561       -2.84389
C          5.62601        2.13185       -2.74599
C          5.23103        1.68862       -4.16503
C          6.57986        1.09151       -2.12937
H          6.67670        3.82810       -1.85796
H          7.27494        3.37311       -3.44885
H          5.75156        4.23932       -3.30969
H          4.58306        2.42927       -4.63210
H          6.11216        1.57033       -4.79550
H          4.70221        0.73630       -4.14820
H          6.83320        1.36105       -1.10418
H          6.12707        0.10116       -2.11680
H          7.50624        1.02426       -2.69955
H         -2.04753       -1.32112       -4.95634
H          1.06165        1.08236       -5.45375
H         -0.64320       -0.57323       -5.71279
H         -1.53246        0.28291       -4.44932
H          2.07793        0.38155       -4.19035
H          2.34915        2.03792       -4.72523
