72
-108.40264379
Cl         1.76593       -0.89611        2.62060
Cl        -0.93437        0.73594        2.82673
P         -1.10197        1.16650       -0.28767
P          2.26846       -0.13633       -0.34657
C          3.27323        1.44049       -0.01873
C          3.61039        1.51278        1.47133
C          4.54793        1.42336       -0.85474
C          3.33136       -1.70905       -0.18399
C          4.14191       -1.93710       -1.46627
C          1.45470       -0.32836       -2.04103
C          1.50793        0.91063       -2.90922
C         -1.13281       -0.17579       -1.50892
C          0.04263       -0.89119       -2.00029
C         -0.44744       -1.96763       -2.86170
C         -1.89627       -1.89425       -2.90363
C         -2.32037       -0.76188       -2.10073
C          2.43978        2.66690       -0.36893
H          2.70785        1.48970        2.08231
H          4.25048        0.69474        1.79044
H          5.09176        2.36291       -0.74370
H          4.32816        1.29243       -1.91364
C          4.28915       -1.65180        1.00254
H          4.64678       -1.03005       -1.79363
H          3.52032       -2.29513       -2.28616
H          2.06869       -1.09303       -2.52562
H          1.11067        0.70712       -3.90593
H          2.52398        1.28506       -3.03301
H          0.89430        1.70193       -2.48411
H          0.17755       -2.64740       -3.44378
H         -2.55272       -2.54299       -3.48827
Pd         0.47207        0.19912        1.15157
H         -3.34566       -0.44085       -1.90454
C          2.34996       -2.85526        0.00926
H          4.90581       -2.69930       -1.30376
H          3.76677       -1.41759        1.92768
H          4.77664       -2.61741        1.14433
H          5.07885       -0.91920        0.84761
H          1.85026       -2.77160        0.97321
H          1.59360       -2.85958       -0.77686
H          2.86420       -3.81818       -0.01221
H          4.13767        2.44016        1.70091
H          5.21999        0.62467       -0.54592
H          2.26681        2.75510       -1.43841
H          1.47700        2.64180        0.13940
H          2.94786        3.58074       -0.05688
C         -2.73748        1.28086        0.46183
C         -3.12610        2.34863        1.23036
C         -4.43502        2.09661        1.64408
C         -4.78989        0.88386        1.10487
O         -3.75650        0.37278        0.37314
H         -2.51881        3.20850        1.46627
H         -5.04578        2.72874        2.26776
H         -5.74533        0.39008        1.23249
C         -0.78506        2.77913       -1.01973
C         -1.19159        3.10958       -2.28839
C         -0.79738        4.43009       -2.51063
C         -0.17158        4.85096       -1.36241
O         -0.15801        3.84606       -0.43722
H         -1.71948        2.46271       -2.97141
H         -0.95796        5.00800       -3.40607
H          0.25429        5.83300       -1.19792
Fe        -1.28526       -2.10888       -0.97871
C         -2.97928       -2.78932       -0.04421
C         -2.16838       -2.03521        0.89129
C         -0.86763       -2.66587        0.94813
C         -0.87898       -3.82205        0.07086
C         -2.19460       -3.90827       -0.53540
H         -4.01947       -2.57334       -0.29874
H         -2.46911       -1.13691        1.43341
H         -0.05481       -2.35336        1.60601
H         -0.06456       -4.53737       -0.06426
H         -2.53455       -4.67778       -1.23205
