87
-129.18542427
P         -1.71414       -0.37777       -0.10491
P          1.58178        0.34484       -0.19812
C         -1.46012        0.96236       -1.29476
C          1.31544       -0.64606       -1.67182
C         -0.50858        0.92781       -2.31283
C         -0.30288        2.08441       -3.08960
C         -1.06950        3.21120       -2.84887
C         -2.01670        3.22397       -1.84908
C         -2.20065        2.09899       -1.06972
C          2.11040       -1.74223       -1.90050
C          1.91953       -2.51223       -3.03072
C          0.92834       -2.17471       -3.92814
C          0.11393       -1.07470       -3.71490
C          0.31271       -0.28656       -2.56359
Cl         1.30787        1.13648        2.92386
Cl        -1.37183       -0.70605        3.06739
H         -2.60164        4.11056       -1.66674
H         -2.92469        2.11053       -0.27165
H          2.88724       -1.99368       -1.19775
H          2.54092       -3.37459       -3.20839
H         -0.90968        4.09006       -3.45030
H          0.77370       -2.77464       -4.80887
C         -0.86041       -4.59487       -1.56524
C         -0.34202       -4.17127       -0.34921
C         -0.63677       -2.88402        0.08211
C         -1.41135       -2.04759       -0.68865
C         -1.94520       -2.48484       -1.87759
C         -1.66745       -3.76512       -2.31909
H         -0.62813       -5.58573       -1.91661
C          0.54618       -5.05380        0.45476
H         -0.28281       -2.54495        1.04061
H         -2.55737       -1.81683       -2.46227
H         -2.06935       -4.10948       -3.25783
C         -5.85486       -0.04037        1.75841
C         -5.61186       -0.98360        0.77964
C         -4.35109       -1.09060        0.22298
C         -3.34464       -0.25387        0.64617
C         -3.58580        0.68778        1.61987
C         -4.84378        0.80238        2.19881
H         -6.83656        0.04654        2.19200
H         -6.40345       -1.63632        0.44980
H         -4.14661       -1.82474       -0.53909
H         -2.78621        1.33020        1.95032
C         -5.09952        1.82916        3.24532
C          4.94217       -1.46132        2.29363
C          5.07441       -0.18152        1.79180
C          4.06045        0.36948        1.03131
C          2.92634       -0.36384        0.77371
C          2.79102       -1.63729        1.27653
C          3.79570       -2.20491        2.04957
H          5.73164       -1.89271        2.88513
H          5.96548        0.38933        1.99561
H          4.14512        1.37144        0.64382
H          1.89813       -2.20058        1.06619
C          3.64574       -3.58900        2.57551
C          2.43833        4.65040       -1.35480
C          3.16996        3.62579       -1.92286
C          2.92042        2.31571       -1.55793
C          1.94620        2.04593       -0.62585
C          1.22189        3.06377       -0.05076
C          1.45939        4.38573       -0.40671
H          2.62135        5.67014       -1.64785
H          3.92783        3.84517       -2.65695
H          3.46831        1.50070       -2.00456
H          0.45934        2.83281        0.67385
C          0.64246        5.48216        0.18003
Pd        -0.05159        0.12388        1.45469
C          0.72740        2.12703       -4.16473
C         -0.95129       -0.75231       -4.70439
H          1.45611        1.32358       -4.05269
H          0.26725        2.03184       -5.14890
H          1.27504        3.07021       -4.14025
H         -1.65967       -0.02456       -4.30702
H         -0.52105       -0.33988       -5.61783
H         -1.51508       -1.64653       -4.97397
H          1.58825       -4.92565        0.15821
H          0.46825       -4.82545        1.51871
H          0.28391       -6.10418        0.32105
H         -5.31104        2.79921        2.79328
H         -5.95120        1.55456        3.86920
H         -4.23369        1.94333        3.89927
H          2.63572       -3.75433        2.95351
H          3.83771       -4.32410        1.79262
H          4.34066       -3.77972        3.39443
H         -0.26829        5.63803       -0.39996
H          0.35236        5.24868        1.20549
H          1.19666        6.42160        0.19775
