59
-75.81306562
Cl         1.55003        0.73952        2.34023
P          1.59495       -0.08241       -0.88149
P         -1.61841       -0.08900       -0.80124
C          0.57943        0.30391       -2.37032
H          0.32642        1.36702       -2.36375
H          1.17900        0.11081       -3.26543
C         -0.65960       -0.54197       -2.31374
H         -0.40092       -1.60257       -2.25545
H         -1.30141       -0.40444       -3.18995
C          2.50202       -1.66983       -1.21158
H          2.28816       -1.88840       -2.26654
C          3.04847        1.04849       -0.67199
H          3.17730        1.17236        0.41033
C         -2.95004       -1.32757       -0.44703
H         -3.31451       -1.09875        0.56213
C         -2.74384        1.32017       -1.24980
H         -2.26213        1.86036       -2.07396
C          3.98713       -1.29335       -1.05899
H          4.33836       -1.58436       -0.06187
H          4.60249       -1.87356       -1.76305
C          4.21359        0.22926       -1.25325
H          4.30388        0.45451       -2.32495
H          5.16673        0.54701       -0.80345
C         -4.00691       -0.93103       -1.49082
H         -3.76806       -1.44402       -2.43393
H         -4.99876       -1.30842       -1.19665
C         -4.03854        0.60959       -1.72216
H         -4.89115        1.03908       -1.17800
H         -4.23485        0.83362       -2.78117
C          2.03080       -2.83105       -0.33819
H          2.52258       -3.75442       -0.67467
H          0.96170       -2.99339       -0.52723
C          2.85814        2.40968       -1.32985
H          3.81655        2.94739       -1.32389
H          2.61800        2.26195       -2.39071
C         -2.49640       -2.78197       -0.51426
H         -3.38174       -3.43045       -0.57034
H         -1.96060       -2.94885       -1.45665
C         -2.99338        2.26474       -0.07536
H         -3.85357        2.90603       -0.31409
H         -3.30879        1.66931        0.79164
C          2.26898       -2.64666        1.15504
H          1.87705       -1.69413        1.50986
H          3.33087       -2.66425        1.40387
H          1.79246       -3.43408        1.74372
C          1.78841        3.24966       -0.65263
H          0.82292        2.74561       -0.67614
H          1.66308        4.22322       -1.13190
H          2.03039        3.42643        0.39711
C         -1.63712       -3.18644        0.67324
H         -0.76196       -2.54397        0.76571
H         -1.28484       -4.21754        0.59594
H         -2.19157       -3.09718        1.60938
C         -1.80200        3.13564        0.28830
H         -1.46167        3.71832       -0.56973
H         -2.04029        3.83924        1.08926
H         -0.96027        2.53667        0.63252
Cl        -1.61543        0.11056        2.35183
Pd         0.03018        0.10548        0.81976
