72
-108.40041378
Cl         1.73774       -0.76479        2.66180
Cl        -1.01629        0.77375        2.70501
P         -1.19324        1.12629       -0.27639
P          2.31453       -0.11132       -0.33942
C          3.28635        1.49947       -0.09306
C          3.62264        1.65272        1.39115
C          4.56079        1.46422       -0.92835
C          3.38587       -1.66066       -0.08598
C          4.21268       -1.94285       -1.34573
C          1.48551       -0.38904       -2.01385
C          1.52901        0.79408       -2.95768
C         -1.11838       -0.22015       -1.50294
C          0.07370       -0.95056       -1.94158
C         -0.39650       -2.07331       -2.75661
C         -1.84223       -2.00457       -2.85627
C         -2.28503       -0.85909       -2.08426
C          2.42337        2.68712       -0.50390
H          4.11905        2.60692        1.57536
H          2.72256        1.62747        2.00569
H          5.08313        2.42068       -0.87179
H          4.34456        1.26701       -1.97768
C          4.32626       -1.52550        1.10731
H          3.59960       -2.32213       -2.16234
H          4.96594       -2.70624       -1.14381
H          2.10051       -1.17966       -2.45453
H          1.15901        0.51803       -3.94726
H          2.53741        1.18720       -3.08414
H          0.88155        1.59110       -2.59888
H          0.24627       -2.76820       -3.30122
H         -2.48226       -2.68108       -3.42781
Pd         0.50786        0.29098        1.10876
H         -3.31747       -0.54327       -1.91841
C          2.41322       -2.80607        0.15525
H          4.73205       -1.05295       -1.69673
H          5.11357       -0.79835        0.91685
H          3.78888       -1.23656        2.00839
H          4.81721       -2.47739        1.31497
H          1.89970       -2.67783        1.10706
H          1.66658       -2.86024       -0.63838
H          2.93753       -3.76312        0.19077
H          4.29113        0.87268        1.74564
H          5.25021        0.69966       -0.57390
H          2.23669        2.71011       -1.57441
H          1.46790        2.66632        0.01703
H          2.91475        3.62760       -0.24900
C         -2.88773        1.18721        0.36131
C         -3.37088        2.15783        1.20312
C         -4.70322        1.84281        1.47032
C         -4.98026        0.69092        0.77643
O         -3.87465        0.27791        0.09083
H         -2.81519        2.99305        1.59635
H         -5.38111        2.39414        2.10128
H         -5.93068        0.17181        0.76532
C         -0.79096        2.74373       -0.96063
C         -0.70698        3.88131       -0.19640
C         -0.37642        4.92832       -1.05796
C         -0.27270        4.38395       -2.31463
O         -0.52104        3.04162       -2.26849
H         -0.84994        3.94110        0.87063
H         -0.23006        5.96168       -0.78907
H         -0.02783        4.92534       -3.22001
Fe        -1.26072       -2.13824       -0.93631
C         -2.15404       -1.99483        0.91140
C         -0.84834       -2.61156        1.01267
C         -0.84942       -3.82509        0.21872
C         -2.15248       -3.92050       -0.41403
C         -2.97861       -2.82189        0.05462
H         -2.46505       -1.07947        1.41800
H         -0.04186       -2.25270        1.65468
H         -0.02649       -4.53514        0.11450
H         -2.48336       -4.72965       -1.06904
H         -4.01871       -2.62841       -0.21513
