58
-89.86573700
P          1.58792        0.09322        0.74809
C          1.56614        1.88380        0.58364
C          1.59607        2.41225       -0.68665
C          1.56290        3.78240       -0.86653
C          1.50647        4.61585        0.23281
C          1.48996        4.08281        1.50683
C          1.52238        2.71126        1.68281
H          1.51288        2.28689        2.67319
H          1.64770        1.74173       -1.52993
C          3.21697       -0.55830        0.36550
C          4.30525        0.28214        0.42875
C          5.56814       -0.20367        0.14081
C          5.73095       -1.52971       -0.20842
C          4.63617       -2.36917       -0.27031
C          3.37477       -1.88063        0.01929
H          2.51071       -2.52237       -0.04225
H          4.16085        1.31602        0.69920
C          1.13695       -0.46597        2.44526
C          0.46600       -1.83423        2.42047
C         -1.04306       -1.78077        2.23711
P         -1.60470       -0.82360        0.76387
C         -1.80493        0.93992        1.08334
C         -1.78217        1.46993        2.35312
C         -1.90028        2.83633        2.52966
C         -2.04498        3.66496        1.43473
C         -2.07977        3.12998        0.16306
C         -1.96248        1.76347       -0.00850
H         -1.98673        1.32618       -0.99458
H         -1.68288        0.82050        3.20635
C         -3.13557       -1.53585        0.15764
C         -3.12575       -2.81277       -0.35448
C         -4.29866       -3.36925       -0.83333
C         -5.47175       -2.64143       -0.79446
C         -5.47575       -1.35989       -0.27976
C         -4.30154       -0.80594        0.19732
H         -4.28738        0.19523        0.59680
H         -2.19894       -3.36390       -0.38838
Pd         0.04147       -0.56607       -0.85950
Cl         1.75007       -0.54414       -2.31536
Cl        -1.60649       -0.82045       -2.36057
H         -1.45824       -2.78645        2.13431
H         -1.52752       -1.33914        3.10917
H          0.91312       -2.43342        1.61551
H          0.69686       -2.38304        3.34703
H          2.07090       -0.47899        3.01311
H          0.49157        0.27686        2.91340
H          1.58032        4.19636       -1.86123
H          1.44760        4.73429        2.36419
H          6.42159        0.45269        0.18651
H          4.76235       -3.40248       -0.54895
H         -1.87686        3.25444        3.52265
H         -2.19191        3.77381       -0.69368
H         -4.29435       -4.36703       -1.24031
H         -6.39031       -0.79058       -0.25263
H          1.47748        5.68460        0.09648
H          6.71362       -1.90937       -0.43631
H         -2.13066        4.73042        1.57298
H         -6.38526       -3.07318       -1.16969
