72
-98.09920725
Fe        -0.02350        2.81754        0.01152
P          1.79012       -0.04194       -0.04080
P         -1.89233       -0.05055        0.01986
C          1.38303        1.58942        0.69020
C          0.38436        1.82503        1.71699
C          0.32736        3.25298        1.97693
C          1.30279        3.90079        1.11821
C          1.97344        2.87269        0.33949
C         -1.43434        1.56831       -0.70671
C         -2.02249        2.85885       -0.38491
C         -1.33799        3.87191       -1.17077
C         -0.34620        3.20653       -1.99612
C         -0.41334        1.78365       -1.71636
C          3.02324       -0.84508        1.08460
C          4.30600       -0.07037        0.74390
C          2.96990        0.24551       -1.45249
C          4.34528        0.36668       -0.75160
C         -3.30713       -0.71318       -0.98458
C         -4.47586        0.12210       -0.43560
C         -2.86206        0.22429        1.58457
C         -4.31278        0.42631        1.08184
H         -0.20814        1.05481        2.20933
H         -0.32460        3.74862        2.70012
H          1.51823        4.97147        1.08641
H          2.76616        3.03472       -0.39380
H         -2.82948        3.03185        0.33011
H          0.19148        1.00549       -2.18080
Cl         1.54265       -3.05082       -0.45345
Cl        -1.67075       -3.06595        0.11405
Pd        -0.04971       -1.51046       -0.05291
H          3.12133       -1.89246        0.77769
C          2.59579       -0.76112        2.54372
H          2.67707        1.19058       -1.92559
C          2.95190       -0.87900       -2.48470
H          5.19598       -0.66396        1.00393
H          4.35083        0.81851        1.38989
H          4.73194        1.39283       -0.83891
H          5.07086       -0.25541       -1.29410
H         -1.54998        4.94350       -1.16034
H          0.32187        3.68812       -2.71364
H          2.47523        0.29484        2.81912
H          3.81421       -0.76292       -3.15605
H         -3.43853       -1.76703       -0.71399
C         -3.10575       -0.57707       -2.49152
H         -2.47526        1.13693        2.05303
C         -2.75146       -0.95515        2.55081
H         -5.43533       -0.37881       -0.63836
H         -4.51599        1.06550       -0.99968
H         -4.66042        1.44527        1.30781
H         -4.97777       -0.23324        1.65657
H         -4.08192       -0.64766       -2.99125
H         -2.97682       -1.87686        1.99846
C          3.56979       -1.44638        3.48991
H          3.23822       -1.39185        4.52933
H          3.68618       -2.50187        3.23686
H          4.56053       -0.99153        3.43797
C          1.67638       -0.94279       -3.30429
H          1.51205       -0.01700       -3.85887
H          1.69364       -1.76110       -4.02777
H          0.81227       -1.09767       -2.66150
C         -2.16150       -1.62087       -3.06279
H         -1.19283       -1.58375       -2.56848
H         -2.55155       -2.62963       -2.91462
H         -1.99300       -1.48475       -4.13342
C         -1.40605       -1.07454        3.24617
H         -1.36708       -1.93762        3.91472
H         -0.59843       -1.19033        2.52548
H         -1.18784       -0.18869        3.84545
H          1.59693       -1.20349        2.64942
H          3.11825       -1.83122       -1.96456
H         -2.74249        0.43517       -2.71110
H         -3.54473       -0.87184        3.30695
