111
-148.55924152
P         -2.47520       -2.30036       -0.40305
P         -0.01295       -0.29895       -0.49318
C         -1.60396       -2.01502       -1.96446
C         -0.54244       -1.13773       -1.99927
C         -2.89215       -4.08526       -0.15666
C         -2.00196       -4.70797        0.89683
C         -2.01254       -2.65042       -3.11937
H         -2.85267       -3.32495       -3.08727
C         -1.34898       -2.40783       -4.30977
H         -1.66620       -2.90396       -5.21246
C         -0.28457       -1.52741       -4.34284
H          0.23089       -1.33675       -5.26973
C          0.11771       -0.88747       -3.18413
H          0.94411       -0.19409       -3.19406
Pd        -1.21444       -1.27442        1.23146
Cl        -2.81506       -1.90368        2.67638
Cl         0.07381       -0.24173        2.74630
C         -4.38648       -4.03956        0.21424
C         -4.17068       -1.55987       -0.39308
H         -2.25024       -5.75950        1.05910
H         -0.94841       -4.64702        0.61313
H         -2.11397       -4.19143        1.85182
H         -4.47600       -4.00849        1.30894
H         -4.88795       -4.96860       -0.09699
H         -4.25886       -1.01715        0.55735
C         -5.09162       -2.79459       -0.39559
C         -4.36739       -0.62692       -1.56924
H         -2.75115       -4.57855       -1.12686
H         -5.38791       -3.01292       -1.43075
H         -6.02840       -2.57364        0.13820
H         -4.26491       -1.16639       -2.51246
H         -5.35972       -0.17005       -1.55622
H         -3.62250        0.17221       -1.57123
C         -1.12966        4.11599       -0.52975
C          0.00746        3.66992       -1.25111
C          0.32758        2.32277       -1.20328
C         -0.47818        1.42867       -0.54759
C         -1.64573        1.83763        0.04331
C         -2.01625        3.17180        0.04765
O         -1.35832        5.50670       -0.35350
C          0.90140        4.62490       -2.05829
H          1.22399        1.95256       -1.67051
H         -2.26166        1.10021        0.52637
C         -3.33416        3.57948        0.72535
C          4.41664       -0.89251        0.39482
C          3.71907        0.20305        0.96392
C          2.37321        0.34643        0.67102
C          1.73935       -0.50875       -0.19106
C          2.43148       -1.51302       -0.81648
C          3.78330       -1.70336       -0.58183
O          5.73273       -1.20069        0.83093
C          4.38024        1.19871        1.92930
H          1.78713        1.11935        1.13794
H          1.89509       -2.15710       -1.49111
C          4.53010       -2.79394       -1.36623
C          0.08448        5.79696       -2.63225
C          2.02741        5.15559       -1.15869
C          1.53695        3.88920       -3.25996
C         -4.38269        2.44992        0.61370
C         -3.07051        3.85479        2.21360
C         -3.94541        4.82254        0.05359
C         -0.72579        6.05568        0.79595
H          0.70451        6.43692       -3.25955
H         -0.74299        5.42786       -3.23725
H         -0.33126        6.41602       -1.84120
H          2.67652        5.83791       -1.70693
H          1.62893        5.68860       -0.29890
H          2.63946        4.33535       -0.78614
H          2.26057        3.14157       -2.93853
H          0.77328        3.39314       -3.85847
H          2.06638        4.58916       -3.90603
H         -5.34855        2.78031        0.99511
H         -4.51955        2.15188       -0.42494
H         -4.09596        1.57264        1.19136
H         -3.98865        4.13836        2.72733
H         -2.66936        2.96766        2.70332
H         -2.34976        4.65841        2.34415
H         -4.09134        4.64969       -1.01216
H         -4.91157        5.07004        0.49264
H         -3.30207        5.69159        0.16513
H         -1.47859        6.47716        1.46184
H         -0.16313        5.28541        1.32503
H         -0.05148        6.85713        0.49460
C          5.78150       -2.11095        1.92260
C          5.86818        1.39978        1.59007
C          3.70564        2.58571        1.82909
C          4.22713        0.68279        3.36824
C          6.00679       -2.41372       -1.57882
C          4.42986       -4.12597       -0.60779
C          3.90779       -2.97658       -2.76975
H          6.43227        0.47903        1.71510
H          5.98532        1.72547        0.55701
H          6.31907        2.15243        2.23637
H          4.24908        3.32414        2.41811
H          3.68662        2.93011        0.79603
H          2.68374        2.56732        2.20483
H          4.66978        1.37709        4.08188
H          3.17439        0.56123        3.62260
H          4.71058       -0.28297        3.49419
H          6.08634       -1.44867       -2.07814
H          6.53926       -2.34451       -0.63364
H          6.51840       -3.15584       -2.19119
H          4.87464       -4.05096        0.38160
H          3.38809       -4.41967       -0.48110
H          4.94191       -4.92213       -1.14761
H          2.90672       -3.40177       -2.71621
H          4.51021       -3.65377       -3.37482
H          3.84782       -2.02311       -3.29400
H          6.34538       -2.99812        1.63490
H          6.28943       -1.64373        2.76611
H          4.77323       -2.40116        2.22079
