58
-89.86591172
P          1.65067        0.17675        0.80302
C          2.82909        1.52663        0.68395
C          4.12537        1.28523        0.29065
C          5.02138        2.33471        0.19651
C          4.61061        3.61851        0.49721
C          3.30851        3.85536        0.89184
C          2.41462        2.80343        0.98594
H          1.39184        2.97301        1.28455
H          4.42948        0.27840        0.05439
C          2.29494       -1.30125        0.00560
C          2.54746       -2.45719        0.70976
C          3.00231       -3.58042        0.04298
C          3.20159       -3.53922       -1.32301
C          2.95051       -2.37726       -2.02505
C          2.49605       -1.25660       -1.35553
H          2.28274       -0.34150       -1.88571
H          2.38378       -2.48468        1.77413
C          1.37086       -0.06969        2.60635
C          0.13567       -0.87614        2.96430
C         -1.16348       -0.15122        2.65270
P         -1.60837       -0.27678        0.87887
C         -3.15262        0.60426        0.59856
C         -4.17129        0.02501       -0.12318
C         -5.33772        0.72968       -0.35859
C         -5.47410        2.01522        0.12619
C         -4.44566        2.59849        0.83933
C         -3.27958        1.89085        1.07199
H         -2.46216        2.34273        1.61133
H         -4.04322       -0.96883       -0.51957
C         -1.75214       -2.02683        0.49246
C         -0.75519       -2.65700       -0.21510
C         -0.84383       -4.01078       -0.47958
C         -1.93203       -4.72891       -0.02592
C         -2.92439       -4.09755        0.69785
C         -2.82963       -2.74282        0.96287
H         -3.58868       -2.24115        1.54210
H          0.10267       -2.09510       -0.54060
Pd        -0.11504        0.67304       -0.62733
Cl         1.28984        1.86598       -1.91215
Cl        -1.81643        0.83731       -2.08290
H         -2.00525       -0.58049        3.20173
H         -1.10352        0.90261        2.92882
H          0.15206       -1.84029        2.43820
H          0.16701       -1.12850        4.03601
H          2.28096       -0.52883        2.99935
H          1.31190        0.92560        3.05141
H          6.03656        2.15032       -0.11440
H          2.98674        4.85772        1.12197
H          3.19733       -4.48841        0.58966
H          3.10382       -2.34336       -3.09111
H         -6.13480        0.27810       -0.92607
H         -4.54749        3.60554        1.20913
H         -0.06043       -4.50289       -1.03214
H         -3.77007       -4.65912        1.05945
H          5.30687        4.43773        0.42097
H          3.55383       -4.41573       -1.84200
H         -6.38133        2.56691       -0.05900
H         -2.00392       -5.78449       -0.23154
