171
-217.84210858
P         -1.62938        0.31361       -0.42555
P          1.67085       -0.28714       -0.24913
C         -0.88677        1.36185       -1.67629
C          1.08622       -1.24317       -1.64863
C          0.01678        0.82431       -2.58609
C          0.65431        1.69291       -3.49276
C          0.32891        3.03937       -3.48767
C         -0.59817        3.54415       -2.60106
C         -1.19916        2.69950       -1.68945
C          1.40395       -2.57786       -1.71709
C          0.91954       -3.35502       -2.75005
C          0.10223       -2.78652       -3.70356
C         -0.22629       -1.44172       -3.65413
C          0.29511       -0.64041       -2.62020
Cl         1.39586        0.29821        2.95793
Cl        -1.74564       -0.52484        2.71934
C         -1.11227       -0.86843       -4.70303
C          1.66069        1.18958       -4.46621
H         -0.84829        4.59248       -2.61367
H         -1.92168        3.08595       -0.98945
H          2.03998       -3.01454       -0.96463
H          1.17431       -4.40084       -2.80547
H          0.81184        3.69552       -4.19207
H         -0.29047       -3.39045       -4.50419
C         -3.76591       -3.24727       -2.20839
C         -2.74675       -3.47046       -1.29032
C         -2.09816       -2.36422       -0.75528
C         -2.45460       -1.09866       -1.14726
C         -3.45849       -0.89352       -2.06156
C         -4.14330       -1.97096       -2.60995
H         -4.28448       -4.09800       -2.60838
H         -1.31218       -2.47682       -0.02853
H         -3.71841        0.11606       -2.33428
C         -4.45606        2.54523        2.33763
C         -3.14803        2.99537        2.20794
C         -2.31724        2.32531        1.32031
C         -2.77667        1.24478        0.60808
C         -4.06805        0.80389        0.76115
C         -4.93798        1.45108        1.63007
H         -5.11876        3.04441        3.01915
H         -1.29115        2.63161        1.20371
H         -4.38359       -0.06761        0.21582
C          4.15561       -2.71919        2.66903
C          2.87282       -3.15099        2.35549
C          2.15200       -2.41713        1.42331
C          2.69029       -1.29313        0.84644
C          3.95379       -0.87195        1.18063
C          4.71624       -1.58288        2.09931
H          4.73364       -3.26753        3.38875
H          1.14761       -2.70840        1.16524
H          4.33014        0.03261        0.73724
C          3.98954        3.37780       -1.51991
C          2.86888        3.54237       -0.71466
C          2.16593        2.40507       -0.33634
C          2.57058        1.16761       -0.76922
C          3.67558        1.02090       -1.57121
C          4.41594        2.13023       -1.96085
H          4.54867        4.25147       -1.79689
H          1.29934        2.47142        0.29867
H          3.96943        0.03111       -1.87967
Pd        -0.07601       -0.04085        1.29416
C         -1.18466       -4.93263        0.07999
C         -2.39523       -4.90439       -0.87164
C         -2.04947       -5.73610       -2.12094
C         -3.60197       -5.52870       -0.14860
H         -0.92656       -5.95690        0.34851
H         -0.31193       -4.48143       -0.39057
H         -1.39863       -4.39430        1.00286
H         -1.75994       -6.75019       -1.84603
H         -2.89768       -5.80612       -2.80058
H         -1.22108       -5.28525       -2.66589
H         -4.47440       -5.56930       -0.79988
H         -3.37932       -6.54472        0.17687
H         -3.86818       -4.94251        0.73083
C         -6.41627       -0.94613       -2.83479
C         -5.31104       -1.71882       -3.57659
C         -5.90780       -3.03695       -4.10681
C         -4.82599       -0.89011       -4.78015
H         -6.76805       -1.51330       -1.97333
H         -6.05191        0.01740       -2.48011
H         -7.26930       -0.76073       -3.48729
H         -5.15566       -3.62287       -4.63493
H         -6.31081       -3.64121       -3.29429
H         -6.72214       -2.83946       -4.80387
H         -4.06978       -1.43473       -5.34344
H         -5.65082       -0.67060       -5.45791
H         -4.39534        0.05894       -4.46351
C         -1.30677        3.74380        3.74043
C         -2.59304        4.17992        3.01067
C         -3.60028        4.67745        4.06520
C         -2.27966        5.33528        2.04457
H         -0.52814        3.44846        3.03904
H         -0.91049        4.55436        4.35157
H         -1.50506        2.89361        4.39269
H         -3.86601        3.87948        4.75838
H         -3.17699        5.49546        4.64801
H         -4.51187        5.04706        3.59620
H         -1.56637        5.02536        1.28292
H         -3.18412        5.66786        1.53554
H         -1.85683        6.18744        2.57636
C         -6.71729       -0.24266        0.96860
C         -6.37685        0.96738        1.85938
C         -7.35891        2.10610        1.52799
C         -6.53957        0.54932        3.33218
H         -7.74307       -0.57107        1.13537
H         -6.61971        0.01390       -0.08518
H         -6.06196       -1.08679        1.18264
H         -7.19700        2.97030        2.17103
H         -7.23716        2.43004        0.49449
H         -8.39091        1.78168        1.66059
H         -5.83237       -0.23983        3.58697
H         -6.36006        1.38793        4.00387
H         -7.54581        0.17716        3.52385
C          0.86173       -3.99097        3.60037
C          2.22874       -4.38348        3.00488
C          3.10217       -4.95379        4.13890
C          2.03945       -5.47109        1.93365
H          0.17260       -3.64718        2.83076
H          0.39752       -4.83825        4.10452
H          0.97612       -3.18616        4.32616
H          2.61366       -5.80584        4.61152
H          4.06490       -5.29683        3.76070
H          3.27970       -4.20398        4.90969
H          1.42406       -5.10787        1.11248
H          3.00042       -5.77416        1.51839
H          1.55710       -6.35418        2.35227
C          6.56247        0.13508        1.76380
C          6.11740       -1.12581        2.52909
C          7.13208       -2.24895        2.24599
C          6.10239       -0.80276        4.03430
H          7.56159        0.44335        2.07141
H          6.59028       -0.05352        0.69166
H          5.88745        0.96975        1.95219
H          6.89494       -3.15040        2.80962
H          7.13444       -2.50686        1.18705
H          8.14089       -1.94109        2.52058
H          7.07870       -0.45224        4.36853
H          5.37053       -0.02511        4.25216
H          5.84242       -1.68047        4.62482
C          3.57593        5.51074        0.66229
C          2.46612        4.94579       -0.24209
C          1.14987        4.91507        0.55702
C          2.27088        5.86475       -1.46255
H          4.52014        5.59102        0.12471
H          3.31364        6.50301        1.02887
H          3.73591        4.86311        1.52418
H          0.34126        4.50227       -0.04496
H          1.25276        4.31328        1.45954
H          0.85855        5.91981        0.86275
H          3.19457        5.97768       -2.02852
H          1.51552        5.45770       -2.13353
H          1.94728        6.85868       -1.15402
C          5.35452        1.19230       -4.10208
C          5.69024        1.93946       -2.79833
C          6.70500        1.11741       -1.98393
C          6.33751        3.28824       -3.16786
H          4.89565        0.22514       -3.90097
H          4.66625        1.77390       -4.71342
H          6.25439        1.01647       -4.69134
H          7.62963        0.97303       -2.54249
H          6.95024        1.62599       -1.05186
H          6.30653        0.13365       -1.73820
H          6.64004        3.83689       -2.27614
H          7.22846        3.13517       -3.77680
H          5.64868        3.90927       -3.74038
H         -1.87007       -1.59249       -5.00361
H          2.44465        1.93038       -4.62587
H         -0.54177       -0.59547       -5.59151
H         -1.62860        0.02261       -4.34311
H          1.20028        0.97879       -5.43210
H          2.13581        0.27488       -4.10885
