75
-122.81877531
P          1.82553       -0.56686       -0.01557
C          1.69212       -1.55720       -1.51002
C          1.69811       -2.92819       -1.39171
C          1.68277       -3.71622       -2.52868
C          1.66634       -3.12396       -3.77595
C          1.65888       -1.74789       -3.88947
C          1.67188       -0.96353       -2.75117
H          1.65851        0.11128       -2.82385
H          1.63813       -1.28499       -4.86232
H          1.65234       -3.73683       -4.66238
H          1.68540       -4.79010       -2.43982
H          1.72933       -3.37504       -0.41037
C          3.14861       -1.30528        0.95678
C          4.41759       -1.32690        0.42402
C          5.45239       -1.90956        1.13337
C          5.20576       -2.47548        2.36829
C          3.92808       -2.46560        2.89146
C          2.89580       -1.88285        2.17966
H          1.89410       -1.87191        2.57757
H          3.73450       -2.90973        3.85405
H          6.01101       -2.92861        2.92319
H          6.44771       -1.92384        0.72060
H          4.59061       -0.89776       -0.55063
C          2.21047        1.14334       -0.42843
C          3.36416        1.79234       -0.05537
C          3.53400        3.14269       -0.32811
C          2.49852        3.83534       -0.95480
C          1.33014        3.20168       -1.31550
C          1.18478        1.82851       -1.06157
O          0.00292        1.14676       -1.39417
C         -1.19124        1.81414       -1.07737
C         -1.35087        3.18461       -1.33732
C         -2.53341        3.80355       -0.99785
C         -3.56937        3.09901       -0.38549
C         -3.38449        1.75260       -0.10318
C         -2.21586        1.11830       -0.45435
P         -1.81737       -0.58233       -0.01602
C         -3.13788       -1.30046        0.97531
C         -2.89877       -1.79775        2.23574
C         -3.93279       -2.36115        2.96036
C         -5.19875       -2.43116        2.41388
C         -5.43193       -1.94403        1.14332
C         -4.39532       -1.38066        0.42106
H         -4.55790       -1.01055       -0.57933
H         -6.41812       -2.00429        0.71315
H         -6.00535       -2.86921        2.97887
H         -3.74980       -2.74312        3.95128
H         -1.90688       -1.73981        2.65321
C         -1.68525       -1.59429       -1.49530
C         -1.63927       -1.01560       -2.74274
C         -1.62727       -1.81344       -3.87171
C         -1.66024       -3.18776       -3.74238
C         -1.70120       -3.76498       -2.48862
C         -1.71607       -2.96350       -1.36109
H         -1.76594       -3.39822       -0.37508
H         -1.72379       -4.83753       -2.38742
H         -1.64678       -3.81116       -4.62144
H         -1.58653       -1.36249       -4.84952
H         -1.60364        0.05789       -2.82713
Pd        -0.00097       -0.04318        1.40877
Cl        -1.57738        0.98636        2.65181
Cl         1.61294        0.86570        2.69849
H         -4.14887        1.20724        0.42129
C         -4.82075        3.79096        0.02235
H         -5.67559        3.11487       -0.02231
H         -5.03342        4.63831       -0.63069
H         -4.73958        4.16417        1.04398
H         -2.64885        4.85446       -1.19628
S         -0.00991        4.07722       -2.08135
H          2.60291        4.88836       -1.14803
C          4.76883        3.85020        0.10290
H          4.12781        1.25549        0.47876
H          4.66811        4.21278        1.12663
H          5.63462        3.18783        0.06384
H          4.97711        4.70670       -0.53955
