171
-217.84843290
P         -1.60568        0.43873       -0.33757
P          1.56736       -0.32884       -0.23524
C         -0.83495        1.48327       -1.58588
C          0.93663       -1.19694       -1.67449
C          0.01273        0.95261       -2.55277
C          0.67963        1.83364       -3.42639
C          0.44827        3.19514       -3.32415
C         -0.41573        3.69992       -2.37638
C         -1.04905        2.83809       -1.50336
C          1.15491       -2.54952       -1.76518
C          0.65661       -3.26142       -2.83893
C         -0.07167       -2.60954       -3.81175
C         -0.30532       -1.24624       -3.73671
C          0.22145       -0.51711       -2.65315
Cl         1.48398        0.40018        2.97153
Cl        -1.67385       -0.15257        2.92974
C         -1.08696       -0.57388       -4.81087
C          1.63595        1.33680       -4.45362
H         -0.59068        4.76134       -2.31053
H         -1.71606        3.22737       -0.75203
H          1.71912       -3.04890       -0.99375
H          0.83678       -4.32107       -2.91655
H          0.95971        3.86316       -3.99663
H         -0.46880       -3.16207       -4.64652
C         -3.47015       -3.42533       -1.77382
C         -2.58674       -3.46199       -0.70195
C         -2.00666       -2.26635       -0.30116
C         -2.29963       -1.09424       -0.95315
C         -3.17771       -1.07283       -2.00876
C         -3.78729       -2.24637       -2.43786
H         -3.94196       -4.33443       -2.09580
H         -1.33427       -2.24530        0.53919
H         -3.39198       -0.12980       -2.48212
C         -4.78649        2.70594        1.97038
C         -3.45572        3.07588        2.12716
C         -2.50020        2.38650        1.39323
C         -2.86497        1.35928        0.55920
C         -4.18267        0.99864        0.42643
C         -5.17480        1.67198        1.12719
H         -5.54589        3.22624        2.52305
H         -1.45747        2.63902        1.48889
H         -4.42989        0.17733       -0.22187
C          4.22474       -3.09701        2.19721
C          2.84599       -3.21387        2.32609
C          2.04740       -2.38016        1.55324
C          2.61220       -1.43836        0.72859
C          3.97647       -1.31986        0.63733
C          4.81400       -2.15420        1.36363
H          4.85032       -3.75924        2.76508
H          0.97516       -2.44589        1.60672
H          4.39654       -0.56268       -0.00022
C          3.93911        3.37947       -1.26635
C          2.89472        3.48188       -0.35599
C          2.18101        2.32903       -0.05698
C          2.48579        1.14312       -0.67619
C          3.50065        1.06428       -1.59811
C          4.25943        2.18768       -1.90538
H          4.53440        4.25079       -1.46728
H          1.38651        2.34450        0.66829
H          3.69778        0.11631       -2.06916
Pd        -0.06753        0.08355        1.37767
C         -2.63009       -4.55833        1.55025
C         -2.26145       -4.75033        0.06666
C         -0.75832       -5.05298       -0.06368
C         -3.04958       -5.95696       -0.47778
H         -2.40538       -5.45458        2.12815
H         -2.08133       -3.72870        1.99341
H         -3.69349       -4.34527        1.65680
H         -0.48547       -5.93792        0.51086
H         -0.49329       -5.23319       -1.10465
H         -0.15516       -4.22002        0.29283
H         -2.80486       -6.14644       -1.52278
H         -2.81104       -6.85939        0.08502
H         -4.12393       -5.79212       -0.39776
C         -4.36709       -3.23635       -4.67275
C         -4.82683       -2.26722       -3.56761
C         -5.02304       -0.86991       -4.18751
C         -6.17838       -2.73778       -2.99835
H         -3.39300       -2.94554       -5.06326
H         -4.28383       -4.25556       -4.29756
H         -5.07397       -3.24484       -5.50224
H         -5.75671       -0.90385       -4.99280
H         -5.38323       -0.15833       -3.44480
H         -4.09222       -0.48940       -4.60568
H         -6.10604       -3.74412       -2.58748
H         -6.51195       -2.07471       -2.20054
H         -6.94574       -2.74754       -3.77221
C         -2.44995        5.36475        2.22810
C         -3.00966        4.20355        3.06810
C         -1.91644        3.67446        4.01794
C         -4.17923        4.72928        3.92222
H         -3.21158        5.75399        1.55270
H         -2.11202        6.18180        2.86526
H         -1.60515        5.03871        1.62351
H         -1.02683        3.36422        3.47167
H         -1.61473        4.44097        4.73138
H         -2.27907        2.81345        4.57890
H         -3.83841        5.50337        4.60969
H         -4.95819        5.16608        3.29773
H         -4.61951        3.92864        4.51633
C         -6.86848        0.14214        0.00025
C         -6.65731        1.29132        1.00660
C         -7.46069        2.51305        0.52406
C         -7.17615        0.83659        2.38273
H         -7.92532       -0.11117       -0.08222
H         -6.51801        0.42223       -0.99297
H         -6.33832       -0.75713        0.31354
H         -7.08758        2.86268       -0.43843
H         -8.51545        2.26472        0.40719
H         -7.38994        3.33911        1.23061
H         -7.09404        1.63447        3.11986
H         -8.22337        0.53993        2.32675
H         -6.60220       -0.01527        2.74700
C          2.45384       -5.65348        2.71942
C          2.24478       -4.24281        3.29470
C          0.73602       -4.00550        3.50502
C          2.93479       -4.13122        4.66861
H          2.03072       -6.41135        3.37851
H          1.97509       -5.74680        1.74480
H          3.51409       -5.87071        2.59264
H          0.33402       -4.69489        4.24723
H          0.54494       -2.99070        3.85403
H          0.18145       -4.16294        2.58237
H          2.84751       -3.11773        5.05978
H          2.47936       -4.81070        5.38882
H          3.99342       -4.37917        4.60844
C          7.09844       -3.00307        2.10153
C          6.33437       -1.98832        1.22995
C          6.72751       -0.56664        1.67365
C          6.74101       -2.20183       -0.24011
H          6.85656       -2.87459        3.15639
H          6.85898       -4.02644        1.81313
H          8.17507       -2.87298        1.99225
H          6.24654        0.18920        1.05385
H          6.42833       -0.38995        2.70653
H          7.80504       -0.41929        1.60316
H          6.44745       -3.19464       -0.58051
H          6.26519       -1.47076       -0.89234
H          7.81951       -2.10658       -0.36482
C          2.40641        5.91391       -0.75556
C          2.58481        4.82457        0.31898
C          3.74966        5.19853        1.25153
C          1.28811        4.75071        1.14947
H          1.61541        5.64006       -1.45280
H          2.14046        6.86856       -0.30200
H          3.32051        6.06340       -1.32848
H          3.89372        4.43177        2.01257
H          4.68167        5.29703        0.69580
H          3.55765        6.14502        1.75656
H          1.04880        5.72175        1.58261
H          0.44743        4.44702        0.52645
H          1.38427        4.04087        1.97070
C          5.40654        3.26280       -3.87655
C          5.47266        2.12018       -2.84444
C          5.52710        0.78182       -3.60774
C          6.75458        2.25821       -2.00388
H          6.23753        3.19956       -4.57895
H          4.48045        3.21758       -4.44810
H          5.45673        4.23920       -3.39691
H          6.36794        0.76632       -4.30105
H          5.65315       -0.05750       -2.92470
H          4.61785        0.62160       -4.18595
H          6.82084        1.45680       -1.26824
H          7.64258        2.21284       -2.63408
H          6.77080        3.20624       -1.46695
H         -1.88269       -1.22112       -5.17956
H          2.55142        1.92848       -4.44419
H         -0.44782       -0.32136       -5.65775
H         -1.54925        0.34567       -4.44914
H          1.20551        1.40549       -5.45357
H          1.91426        0.29761       -4.27390
