64
-97.22076966
Cl        -1.45956       -0.30558       -2.75863
Cl         1.74745       -0.61366       -3.00770
P          1.95217       -0.69510        0.24980
C          2.13238       -2.44489        0.82579
C          3.74701       -0.23710        0.08965
P         -1.29997       -0.29105        0.37339
C          1.20156        0.38497        1.52457
C         -0.23177        0.59993        1.56469
C         -0.51680        1.59582        2.58565
C          0.75498        2.03431        3.13331
C          1.81655        1.27003        2.50099
H         -1.50628        1.94379        2.88792
H          0.88709        2.77502        3.92539
Pd         0.24576       -0.69973       -1.35119
H          2.88590        1.35696        2.70277
C         -5.17890        1.85009       -0.70728
C         -4.98349        0.52729       -1.05092
C         -3.80085       -0.10516       -0.71082
C         -2.82037        0.58422       -0.03430
C         -3.01731        1.90095        0.31398
C         -4.19657        2.53840       -0.02368
H         -6.09838        2.34565       -0.97327
H         -5.74794       -0.01168       -1.58610
H         -3.63271       -1.13655       -0.97784
H         -2.24672        2.42979        0.84618
H         -4.34708        3.57107        0.24545
C         -2.41455       -4.39300        1.97221
C         -2.11366       -4.23713        0.63304
C         -1.78108       -2.98731        0.14304
C         -1.74878       -1.90824        0.99580
C         -2.05467       -2.05446        2.32902
C         -2.38803       -3.30378        2.82148
H         -2.67362       -5.36672        2.35496
H         -2.13917       -5.08629       -0.02998
H         -1.55542       -2.84558       -0.90183
H         -2.02357       -1.19280        2.97724
H         -2.62504       -3.42566        3.86563
C          4.19483       -0.11505       -1.35024
H          3.88009        0.71846        0.61365
C          4.45600       -1.38424        0.83660
H          4.58751       -1.11760        1.89555
C          3.64808       -2.70536        0.73440
H          5.47096       -1.51735        0.43442
C          1.58288       -2.59480        2.22795
H          1.57423       -3.07507        0.11983
H          3.95014       -3.40763        1.52478
H          3.88664       -3.20644       -0.21502
H          0.52798       -2.31960        2.27368
H          1.67982       -3.62089        2.59051
H          2.11953       -1.94418        2.92138
H          3.66343        0.67974       -1.87546
H          5.26388        0.09711       -1.42015
H          4.00634       -1.04538       -1.88846
Fe         0.72038        2.31407        1.10729
C          1.20646        4.23367        0.57109
C         -0.13898        3.91900        0.12118
C         -0.05914        2.75346       -0.74067
C          1.33211        2.35726       -0.83269
C          2.11685        3.26784       -0.02156
H          1.48815        5.06767        1.21797
H         -1.04344        4.48200        0.36162
H         -0.88461        2.27900       -1.27563
H          1.71386        1.55803       -1.47054
H          3.20329        3.25248        0.09356
