72
-98.09689546
Fe        -0.03100        2.86345       -0.02937
P          1.83463       -0.03014       -0.02461
P         -1.80713       -0.10252       -0.09482
C          1.41343        1.62233        0.65518
C          0.46411        1.90063        1.71830
C          0.42691        3.33637        1.93187
C          1.36663        3.95003        1.01196
C          1.98531        2.89154        0.23183
C         -1.40328        1.55500       -0.75842
C         -2.02709        2.81333       -0.38189
C         -1.40700        3.87835       -1.15286
C         -0.39158        3.27791       -1.99954
C         -0.40038        1.84383       -1.76799
C          3.17238       -0.73500        1.05445
C          4.38678        0.08915        0.59420
C          2.90906        0.21334       -1.52589
C          4.31539        0.44335       -0.92098
C         -3.22289       -0.78792       -1.07932
C         -4.44143       -0.35455       -0.24806
C         -2.65473        0.04120        1.55334
C         -4.11888       -0.34820        1.26793
H         -0.09804        1.15849        2.28292
H         -0.18382        3.85925        2.67129
H          1.58718        5.01726        0.93527
H          2.74537        3.02422       -0.54074
H         -2.84288        2.92898        0.33506
H          0.24320        1.11029       -2.25345
Cl         1.63730       -3.11491       -0.25052
Cl        -1.58008       -3.10026        0.13226
Pd         0.04258       -1.54320       -0.02725
H          3.30221       -1.78573        0.77112
C          2.88346       -0.62616        2.55007
H          2.54678        1.10984       -2.04274
C          2.89160       -0.98144       -2.47827
H          5.32294       -0.43891        0.83349
H          4.41577        1.01402        1.18901
H          4.64119        1.48100       -1.08635
H          5.04019       -0.17100       -1.47340
H         -1.66361        4.93936       -1.10782
H          0.24882        3.80793       -2.70854
H          3.82954       -0.71164        3.10258
H          3.71678       -0.87455       -3.19628
H         -3.12409       -1.87921       -1.06787
C         -3.26065       -0.28577       -2.51857
H         -2.57997        1.09558        1.84431
C         -2.00154       -0.84525        2.60759
H         -5.30393       -1.00322       -0.46614
H         -4.74305        0.65375       -0.56507
H         -4.80659        0.31657        1.81158
H         -4.30164       -1.35175        1.67526
H         -4.22486       -0.56042       -2.96853
H         -0.92136       -0.66450        2.61839
C          1.90444       -1.67520        3.05125
H          2.29336       -2.68339        2.89642
H          1.69016       -1.56381        4.11655
H          0.95697       -1.61926        2.51851
C          1.58770       -1.16181       -3.23477
H          1.34118       -0.27402       -3.81996
H          1.62948       -2.00752       -3.92504
H          0.76061       -1.34814       -2.55216
C         -2.12153       -0.82387       -3.36532
H         -2.16789       -0.46515       -4.39605
H         -1.15973       -0.51992       -2.95611
H         -2.12906       -1.91513       -3.39307
C         -2.57480       -0.63701        4.00104
H         -2.09116       -1.27717        4.74241
H         -2.44863        0.39707        4.32745
H         -3.64394       -0.85442        4.02821
H          2.51449        0.38411        2.76808
H          3.12632       -1.88733       -1.90452
H         -3.24743        0.81196       -2.51191
H         -2.10924       -1.89443        2.30250
