75
-122.81730376
P          1.87845       -0.55881       -0.00334
C          1.73272       -1.53803       -1.50725
C          1.56453       -0.93575       -2.73296
C          1.54569       -1.70364       -3.88217
C          1.69208       -3.07378       -3.79567
C          1.85213       -3.67651       -2.56377
C          1.87456       -2.90402       -1.41637
H          2.01757       -3.35832       -0.44858
H          1.96227       -4.74622       -2.49520
H          1.67316       -3.67443       -4.69033
H          1.40995       -1.23319       -4.84207
H          1.43676        0.13240       -2.78465
C          3.22001       -1.29582        0.94517
C          4.49216       -1.26770        0.42019
C          5.53577       -1.85480        1.11265
C          5.29488       -2.47623        2.32177
C          4.01399       -2.51809        2.83544
C          2.97291       -1.93060        2.14046
H          1.96802       -1.95915        2.52986
H          3.82463       -3.00636        3.77726
H          6.10715       -2.93273        2.86352
H          6.53355       -1.82989        0.70637
H          4.66083       -0.79906       -0.53678
C          2.22093        1.16231       -0.40987
C          3.37354        1.82017       -0.04928
C          3.53282        3.17038       -0.32723
C          2.48951        3.85239       -0.95181
C          1.32252        3.20970       -1.30074
C          1.18147        1.83898       -1.03170
O         -0.00451        1.15231       -1.34323
C         -1.20189        1.82619       -1.04971
C         -1.35747        3.19274       -1.33196
C         -2.54208        3.82045       -1.01630
C         -3.58366        3.13171       -0.39615
C         -3.41236        1.78515       -0.10820
C         -2.24075        1.14313       -0.43447
P         -1.88444       -0.56098        0.02149
C         -3.23299       -1.26334        0.98420
C         -3.02988       -1.74153        2.25810
C         -4.08372       -2.29578        2.96095
C         -5.33342       -2.37518        2.37931
C         -5.53053       -1.90631        1.09578
C         -4.47402       -1.35231        0.39533
H         -4.60810       -0.99576       -0.61416
H         -6.50402       -1.97367        0.63857
H         -6.15555       -2.80611        2.92711
H         -3.92888       -2.66288        3.96222
H         -2.05058       -1.67282        2.70291
C         -1.70862       -1.58670       -1.44163
C         -1.78449       -1.03372       -2.69921
C         -1.73646       -1.85115       -3.81327
C         -1.61346       -3.21778       -3.65816
C         -1.53398       -3.76784       -2.39401
C         -1.58438       -2.94757       -1.28113
H         -1.54169       -3.36214       -0.28607
H         -1.43440       -4.83397       -2.27325
H         -1.57232       -3.85587       -4.52575
H         -1.79157       -1.42113       -4.79975
H         -1.87743        0.03485       -2.80332
Pd        -0.00254       -0.06793        1.36144
Cl        -1.54385        0.90456        2.69495
Cl         1.63594        0.72371        2.70508
H         -4.19277        1.24384        0.39682
C         -4.86015        3.81755       -0.06113
H         -5.24821        3.47306        0.89836
H         -5.61683        3.62068       -0.82163
H         -4.72295        4.89751        0.00597
H         -2.65548        4.86580       -1.24333
S         -0.01442        4.07666       -2.07913
H          2.58770        4.90405       -1.15574
C          4.76759        3.88626        0.09011
H          4.14657        1.28999        0.47796
H          5.64005        3.23494        0.02327
H          4.95293        4.75510       -0.54274
H          4.68334        4.23163        1.12125
