111
-148.55698591
P         -1.62352       -2.80811       -0.22550
P         -0.55468        0.14618       -0.50633
C         -1.52050       -2.04452       -1.86715
C         -1.11653       -0.73101       -1.98059
C         -0.43582       -4.21574       -0.06680
C          0.64725       -3.88923        0.93917
C         -1.81487       -2.77465       -3.00065
H         -2.09658       -3.81077       -2.90732
C         -1.72453       -2.17801       -4.24645
H         -1.95732       -2.74636       -5.13214
C         -1.33060       -0.85804       -4.35668
H         -1.25488       -0.39565       -5.32706
C         -1.01638       -0.13476       -3.22021
H         -0.67706        0.88645       -3.29065
Pd        -1.47760       -1.05077        1.25192
Cl        -2.00167       -2.37153        2.98298
Cl        -1.23264        0.80460        2.50381
C         -1.33696       -5.39956        0.33906
C         -3.21953       -3.68867        0.09520
H          0.21249       -3.67249        1.91702
H          1.34345       -4.72228        1.06147
H          1.22029       -3.01073        0.63671
H         -1.27205       -5.53244        1.42771
H         -0.95605       -6.33682       -0.09393
H         -3.46823       -3.47586        1.14366
C         -2.82233       -5.16758       -0.06072
C         -4.33525       -3.22406       -0.81639
H         -0.01277       -4.37300       -1.06766
H         -2.97483       -5.46839       -1.10637
H         -3.49388       -5.80821        0.53123
H         -4.09710       -3.42192       -1.86192
H         -5.27267       -3.73794       -0.59174
H         -4.50550       -2.14954       -0.71724
C         -0.74500        4.68511       -0.77820
C          0.32886        3.98078       -1.38046
C          0.35421        2.60075       -1.26384
C         -0.66922        1.92397       -0.65323
C         -1.76296        2.59063       -0.16809
C         -1.84795        3.97130       -0.24320
O         -0.69781        6.10106       -0.67661
C          1.47629        4.68726       -2.11933
H          1.18881        2.03102       -1.63581
H         -2.54253        2.01401        0.29906
C         -3.10257        4.67232        0.30063
C          3.66189       -1.27728        0.45274
C          2.97263       -0.43982        1.36685
C          1.69465       -0.02356        1.03727
C          1.13406       -0.34750       -0.16885
C          1.83028       -1.07679       -1.09571
C          3.11320       -1.52546       -0.83188
O          4.88004       -1.89839        0.83743
C          3.55801       -0.02632        2.72519
H          1.09074        0.52430        1.73974
H          1.34664       -1.31167       -2.02731
C          3.86347       -2.31069       -1.91842
C          0.98830        5.97963       -2.79881
C          2.60310        5.00310       -1.12394
C          2.04480        3.78087       -3.23531
C         -3.39840        5.96749       -0.47719
C         -4.34446        3.76454        0.15018
C         -2.90169        4.98174        1.79207
C         -0.06518        6.57617        0.50531
H          0.16105        5.76823       -3.47554
H          0.64330        6.70695       -2.06835
H          1.78745        6.44536       -3.37495
H          2.97498        4.08938       -0.66068
H          3.43878        5.49325       -1.62278
H          2.25535        5.65839       -0.32903
H          2.55883        2.91176       -2.82746
H          1.24973        3.43205       -3.89385
H          2.76857        4.32356       -3.84301
H         -4.32332        6.42909       -0.13232
H         -2.60168        6.69650       -0.35304
H         -3.49884        5.76086       -1.54216
H         -5.25278        4.30493        0.41578
H         -4.44947        3.41841       -0.87771
H         -4.28921        2.89434        0.80246
H         -3.78256        5.46560        2.21309
H         -2.71810        4.06571        2.35320
H         -2.05022        5.63977        1.94725
H          0.26639        5.73963        1.12177
H          0.79211        7.19408        0.23884
H         -0.76390        7.19113        1.07226
C          4.71585       -3.16723        1.45931
C          3.16299       -1.06835        3.78300
C          5.08951        0.10966        2.65412
C          3.00387        1.35032        3.15934
C          5.38201       -2.07708       -1.82412
C          3.54512       -3.80681       -1.77412
C          3.42381       -1.84841       -3.32671
H          2.07859       -1.14723        3.85895
H          3.54849       -2.05317        3.53046
H          3.55139       -0.79596        4.76391
H          5.49598        0.46159        3.60196
H          5.56320       -0.84182        2.42678
H          5.37574        0.81861        1.87793
H          3.51220        1.70698        4.05482
H          3.14876        2.09170        2.37394
H          1.94154        1.30239        3.39365
H          5.90748       -2.58380       -2.63319
H          5.61079       -1.01360       -1.88456
H          5.78418       -2.45142       -0.88619
H          4.06112       -4.39106       -2.53553
H          3.84731       -4.18288       -0.79973
H          2.47528       -3.98458       -1.88039
H          3.51348       -0.76683       -3.42519
H          2.39327       -2.12845       -3.54038
H          4.04490       -2.30721       -4.09569
H          5.23829       -3.92891        0.88082
H          5.14867       -3.14379        2.45926
H          3.65861       -3.42464        1.52782
