105
-153.07164197
Cl        -0.89217        2.12650       -2.87023
Pd         0.08051        1.53201       -0.93067
P          1.34604        0.75159        0.85618
N          0.60573       -0.46862        1.87701
C          0.02205       -1.70845        1.66118
C         -0.11388       -2.31385        0.38723
C         -0.82662       -3.52589        0.26978
C         -0.97089       -4.15250       -1.09663
C         -2.04953       -5.24370       -1.17879
C         -1.94844       -6.20327        0.01032
C         -2.11652       -5.44777        1.33748
C         -1.35186       -4.14910        1.40400
C         -1.16848       -3.55826        2.64673
C         -0.50069       -2.36837        2.77301
H         -0.39493       -1.91179        3.74180
H         -1.57811       -4.03979        3.51857
H         -3.17828       -5.23525        1.50942
H         -2.68865       -7.01125       -0.07704
H         -3.04145       -4.77468       -1.18225
H         -1.18840       -3.36212       -1.82520
C          0.64883       -1.83745       -0.79319
C         -0.01944       -1.20719       -1.87836
C          0.69339       -0.98522       -3.06023
C          2.00192       -1.37521       -3.18076
C          2.65699       -2.02768       -2.14369
C          4.06260       -2.51904       -2.36882
C          4.40394       -3.73949       -1.50280
C          4.08464       -3.45366       -0.03252
C          2.60572       -3.07597        0.16836
C          1.98207       -2.26268       -0.94469
H          2.01362       -3.99050        0.29256
H          4.72206       -2.63345        0.31538
H          5.45709       -4.02898       -1.62782
H          4.76204       -1.70361       -2.15446
H          2.53337       -1.19072       -4.09893
H          0.20200       -0.48169       -3.87407
N         -1.35399       -0.78912       -1.80054
P         -1.84400        0.21061       -0.42885
C         -2.81038       -0.74510        0.73848
C         -3.52558       -1.81308        0.25348
C         -4.32628       -2.54925        1.10794
C         -4.42112       -2.20855        2.45041
C         -3.69999       -1.11687        2.91681
C         -2.90370       -0.37911        2.05975
H         -2.34953        0.47245        2.41775
H         -3.76174       -0.85134        3.95832
C         -5.24135       -3.02920        3.38329
H         -4.87691       -3.39668        0.73701
H         -3.44339       -2.07000       -0.79080
C         -2.95888        1.52116       -0.94748
C         -2.90239        2.74635       -0.32574
C         -3.76366        3.75429       -0.71863
C         -4.69457        3.53585       -1.72530
C         -4.73762        2.28979       -2.33644
C         -3.87452        1.28275       -1.94351
H         -3.91286        0.31139       -2.40983
H         -5.44884        2.11401       -3.12533
C         -5.59959        4.63108       -2.17114
H         -3.71392        4.72092       -0.24718
H         -2.18063        2.91351        0.45808
H         -1.69861       -0.30221       -2.61806
H          0.80056       -0.20719        2.83595
C          1.30092        2.26534        1.82206
C          0.09962        2.63696        2.37699
C          0.00913        3.81361        3.09840
C          1.12207        4.62782        3.26067
C          2.32812        4.23066        2.69831
C          2.41542        3.05451        1.97661
H          3.34606        2.75385        1.52387
H          3.19836        4.85169        2.82523
C          1.03324        5.88452        4.05467
H         -0.92867        4.10706        3.53834
H         -0.76194        2.00397        2.24010
C          3.07595        0.35627        0.60319
C          3.72525        0.69328       -0.56020
C          5.07510        0.43047       -0.69735
C          5.78641       -0.16766        0.33353
C          5.12146       -0.47252        1.51369
C          3.76847       -0.21369        1.64523
H          3.24827       -0.44812        2.56044
H          5.66799       -0.91746        2.32757
C          7.24266       -0.44110        0.18830
H          5.58762        0.69828       -1.60555
H          3.18040        1.18795       -1.34630
Cl         1.75991        2.99188       -1.25335
H         -1.80688       -6.08339        2.17698
H         -1.97990       -5.79183       -2.12901
H         -0.96911       -6.69809       -0.00584
H         -0.00068       -4.56696       -1.39483
H          4.35340       -4.31452        0.59565
H          2.48315       -2.52579        1.10911
H          4.19992       -2.75310       -3.43222
H          3.81629       -4.60197       -1.84176
H         -5.64486       -2.41977        4.19310
H         -6.08306       -3.49133        2.86560
H         -4.64143       -3.82493        3.82720
H         -6.54108        4.23364       -2.55281
H         -5.83532        5.30686       -1.34785
H         -5.13483        5.21698       -2.96523
H          1.73678        6.63274        3.68692
H          0.03291        6.31604        3.99825
H          1.26010        5.69618        5.10491
H          7.55167       -1.27680        0.81779
H          7.49347       -0.69422       -0.84285
H          7.83117        0.43177        0.47396
