100
-131.96456034
C         -3.12293       -2.85443       -1.47670
C         -1.96077       -3.45072       -0.81238
C         -2.79841       -1.51761       -1.82904
C         -1.39421       -1.21830       -1.41362
C         -0.56335       -0.34392       -2.30727
C         -0.90840       -2.48131       -0.74753
C          0.47378       -2.84862       -0.22669
C          1.09165       -3.98798       -1.01065
Cl        -0.56524        1.51115        2.54063
Cl         0.54459       -1.52840        2.76519
C          0.68615        1.23487       -4.26733
C          0.24706       -0.03578       -4.58338
C          0.51335        1.71920       -2.97878
C         -0.37386       -0.80321       -3.62970
C         -0.07476        0.94777       -2.00489
H         -1.89385       -4.47873       -0.45092
H         -3.42208       -0.85930       -2.43813
H          1.26977       -3.69257       -2.04602
H          2.04285       -4.30433       -0.57784
H          0.43456       -4.86079       -1.03226
H          1.16153        1.84680       -5.01627
H          0.37923       -0.41824       -5.58253
H          0.84443        2.71745       -2.73879
H         -0.74317       -1.78162       -3.88579
H         -4.05974       -3.36829       -1.70708
P         -0.15481        1.72099       -0.37908
H          0.34342       -3.15985        0.81860
P          1.69698       -1.45685       -0.09687
H          1.74322       -1.50492       -2.50860
C          3.84254       -1.31051       -2.07019
C          2.36983       -1.01710       -1.76293
C          4.09428       -2.79609       -2.33027
H          3.59081       -2.75847        0.54850
C          3.99693       -0.86104        1.51465
C          3.03641       -1.97214        1.06078
H          4.14227       -0.17414        0.66355
C          3.43935       -0.04841        2.68616
H          1.04735        3.76137       -0.83599
H         -1.96099        2.71549        0.85557
C         -4.25166        2.46204       -0.76139
C         -2.88158        1.76401       -0.85651
C         -1.77362        2.60839       -0.21985
C         -1.71778        3.99974       -0.86958
C         -3.08376        4.71285       -0.79287
C         -4.19713        3.85268       -1.41989
H         -4.53034        2.57084        0.29406
H         -5.03869        1.84251       -1.21381
H         -2.63032        1.59571       -1.91145
H         -2.90181        0.76786       -0.40006
H         -0.93684        4.61348       -0.40179
H         -1.41566        3.88615       -1.91794
H         -3.32824        4.91238        0.25790
H         -3.03490        5.69930       -1.27503
H         -4.00558        3.73803       -2.49427
H         -5.17050        4.35826       -1.34709
C          3.75495        3.32038       -0.18856
C          2.60025        2.32667       -0.43087
C          1.23005        2.94853       -0.12339
C          1.20549        3.52538        1.29883
C          2.33485        4.54952        1.51312
C          3.70472        3.90466        1.23498
H          3.68983        4.13654       -0.91890
H          4.72461        2.83731       -0.37509
H          2.73119        1.43902        0.19618
H          2.62843        1.96828       -1.46670
H          0.22161        3.95639        1.52801
H          1.33415        2.70158        2.01011
H          2.18734        5.39905        0.83484
H          2.29556        4.97048        2.52756
H          3.88326        3.10331        1.96279
H          4.51693        4.62890        1.39039
H          4.43957       -1.00729       -1.19439
C          4.30894       -0.47492       -3.26724
H          2.57747       -2.44739        1.92793
C          5.36310       -1.44889        1.88288
H          2.18573        0.04902       -1.87163
H          5.14463       -2.98699       -2.55646
H          3.50955       -3.14100       -3.18364
H          3.82587       -3.41398       -1.47527
H          5.36046       -0.65461       -3.49641
H          3.72993       -0.72461       -4.15701
H          4.18410        0.59369       -3.08472
H          2.50959        0.45701        2.43235
H          3.23487       -0.69564        3.53929
H          4.14779        0.71321        3.01538
H          6.06627       -0.67028        2.18279
H          5.26774       -2.14537        2.71647
H          5.80468       -1.99418        1.04709
Fe        -2.63867       -1.80144        0.19186
C         -4.49356       -2.15156        1.04031
C         -4.16340       -0.74646        1.16954
C         -2.91257       -0.65593        1.89578
C         -2.49095       -1.99641        2.25431
C         -3.45992       -2.92276        1.70602
H         -5.38609       -2.55761        0.55854
H         -4.77049        0.08851        0.81474
H         -2.37260        0.25916        2.14304
H         -1.56869       -2.25961        2.77240
H         -3.43249       -4.01080        1.80294
Pd         0.33182       -0.00615        1.11448
