111
-148.55828493
P         -1.95066       -2.66548       -0.46835
P         -0.27704        0.03890       -0.56498
C         -1.43722       -1.97028       -2.06060
C         -0.76720       -0.76638       -2.10306
C         -1.29938       -4.38076       -0.23998
C         -0.35337       -4.42404        0.94049
C         -1.71622       -2.64622       -3.23090
H         -2.22581       -3.59512       -3.18786
C         -1.33345       -2.10574       -4.44637
H         -1.55331       -2.63130       -5.36127
C         -0.66835       -0.89536       -4.48743
H         -0.36702       -0.47593       -5.43320
C         -0.37799       -0.22730       -3.31126
H          0.16018        0.70694       -3.32605
Pd        -1.36085       -1.10868        1.12410
Cl        -2.68390       -2.20034        2.56854
Cl        -0.60562        0.42608        2.57676
C         -2.57179       -5.23321       -0.05710
C         -3.76924       -3.00417       -0.40739
H          0.05885       -5.42519        1.08802
H          0.47688       -3.72677        0.80967
H         -0.87152       -4.13957        1.85870
H         -2.71404       -5.42550        1.01509
H         -2.43846       -6.22400       -0.51683
H         -4.08822       -2.75333        0.61289
C         -3.83667       -4.52653       -0.62159
C         -4.53704       -2.18026       -1.41914
H         -0.78341       -4.64133       -1.17336
H         -3.92602       -4.73084       -1.69735
H         -4.75196       -4.93605       -0.16741
H         -5.60995       -2.37774       -1.36225
H         -4.37973       -1.11089       -1.25947
H         -4.21494       -2.40925       -2.43585
C         -0.93542        4.54418       -0.44191
C          0.14453        4.01700       -1.19573
C          0.33295        2.64418       -1.20351
C         -0.54718        1.80777       -0.56700
C         -1.65361        2.30632        0.06918
C         -1.89537        3.66867        0.12568
O         -1.03511        5.94544       -0.23116
C          1.11214        4.91586       -1.98257
H          1.18351        2.20777       -1.69801
H         -2.32150        1.61053        0.54728
C         -3.16153        4.16881        0.83838
C          3.95304       -1.24711        0.52148
C          3.51987        0.06344        0.85062
C          2.22204        0.42452        0.52848
C          1.40633       -0.42348       -0.17199
C          1.85205       -1.65332       -0.58251
C          3.13484       -2.08153       -0.28290
O          5.18844       -1.75139        1.00980
C          4.41787        1.09924        1.54588
H          1.82378        1.37671        0.83298
H          1.17709       -2.27521       -1.14448
C          3.65039       -3.41853       -0.83882
C          1.71135        4.15354       -3.18609
C          0.38053        6.14652       -2.54893
C          2.26226        5.36045       -1.06712
C         -4.30629        3.13810        0.70572
C         -2.85459        4.36714        2.33076
C         -3.66951        5.48269        0.21772
C         -0.36506        6.40700        0.93527
H          0.92383        3.71813       -3.80068
H          2.29531        4.82383       -3.81644
H          2.37876        3.35511       -2.86488
H          1.04865        6.75302       -3.15985
H         -0.46182        5.84065       -3.16851
H         -0.00344        6.78020       -1.75316
H          1.89416        5.92520       -0.21458
H          2.80382        4.49705       -0.68388
H          2.96972        5.98969       -1.60662
H         -5.23936        3.54449        1.09532
H         -4.46795        2.87023       -0.33808
H         -4.09727        2.22798        1.26596
H         -2.52663        3.43135        2.78297
H         -2.06354        5.09841        2.47751
H         -3.73702        4.71177        2.86912
H         -2.94853        6.28648        0.34182
H         -3.84943        5.35801       -0.84954
H         -4.60137        5.80167        0.68396
H          0.15437        5.58340        1.42690
H          0.35275        7.17989        0.66087
H         -1.08655        6.84469        1.62476
C          5.11448       -2.29043        2.32402
C          4.08959        2.52141        1.03603
C          4.16785        1.05108        3.06105
C          5.90627        0.85529        1.23654
C          5.09352       -3.25112       -1.34766
C          3.60354       -4.49986        0.25065
C          2.79008       -3.89520       -2.03008
H          4.13907        2.55949       -0.05183
H          3.09736        2.84489        1.34653
H          4.80016        3.24794        1.42953
H          4.79645        1.77117        3.58419
H          3.12754        1.28505        3.28616
H          4.37567        0.06371        3.46612
H          6.24555       -0.10144        1.62312
H          6.07860        0.85779        0.16074
H          6.53064        1.62982        1.68129
H          5.76336       -2.96502       -0.53924
H          5.46801       -4.17959       -1.77782
H          5.14374       -2.47741       -2.11312
H          4.26498       -4.25475        1.07640
H          2.59619       -4.60867        0.64876
H          3.91447       -5.46584       -0.14662
H          2.71992       -3.12212       -2.79493
H          1.78220       -4.15998       -1.71302
H          3.22537       -4.78143       -2.49119
H          5.65640       -3.23570        2.35681
H          5.58135       -1.61139        3.03593
H          4.07434       -2.45459        2.60859
