171
-217.84523156
P         -1.59432        0.41205       -0.43273
P          1.60060       -0.29121       -0.24428
C         -0.81985        1.46785       -1.66544
C          1.01501       -1.18062       -1.68863
C          0.06597        0.94564       -2.60174
C          0.74022        1.83246       -3.46379
C          0.47790        3.18972       -3.38071
C         -0.42575        3.68474       -2.46497
C         -1.06647        2.81800       -1.60214
C          1.26108       -2.52936       -1.76696
C          0.79511       -3.25795       -2.84374
C          0.07053       -2.62676       -3.83261
C         -0.18998       -1.26753       -3.77037
C          0.30345       -0.52124       -2.68351
Cl         1.33120        0.36601        3.01818
Cl        -1.80555       -0.37987        2.72872
C         -0.95757       -0.61031       -4.86328
C          1.74590        1.34896       -4.44947
H         -0.62491        4.74275       -2.41506
H         -1.76291        3.19894       -0.87326
H          1.82231       -3.01353       -0.98396
H          0.99834       -4.31415       -2.91122
H          0.99726        3.86244       -4.04235
H         -0.30038       -3.19246       -4.67059
C         -3.57687       -3.40318       -1.84870
C         -2.63607       -3.46488       -0.82782
C         -2.01688       -2.28313       -0.44485
C         -2.32329       -1.09836       -1.06677
C         -3.25388       -1.05363       -2.07631
C         -3.91236       -2.20982       -2.47928
H         -4.07280       -4.30592       -2.14847
H         -1.30605       -2.28259        0.36365
H         -3.48610       -0.10546       -2.53180
C         -4.67604        2.61533        2.07110
C         -3.34506        3.00918        2.14728
C         -2.42498        2.35072        1.34239
C         -2.82169        1.32971        0.51490
C         -4.13866        0.94702        0.46155
C         -5.09546        1.58124        1.24226
H         -5.40198        3.12015        2.67854
H         -1.38307        2.62068        1.37787
H         -4.42138        0.13530       -0.18530
C          4.22301       -3.00993        2.27674
C          2.84717       -3.19907        2.30223
C          2.06549       -2.37394        1.50395
C          2.63939       -1.37486        0.75613
C          3.99900       -1.18446        0.76865
C          4.82259       -2.00749        1.52549
H          4.84816       -3.66142        2.85864
H          0.99714       -2.49593        1.47322
H          4.41401       -0.38233        0.18612
C          3.90936        3.47019       -1.22713
C          2.83862        3.54985       -0.34603
C          2.14344        2.38119       -0.06303
C          2.49624        1.20050       -0.66696
C          3.54244        1.14224       -1.55524
C          4.28033        2.28380       -1.84757
H          4.48462        4.35665       -1.42061
H          1.32650        2.37899        0.63735
H          3.78069        0.19599       -2.01052
Pd        -0.09620        0.01711        1.32401
C         -0.80477       -5.07740       -0.25135
C         -2.30122       -4.76243       -0.07885
C         -3.11362       -5.95863       -0.61048
C         -2.62913       -4.57687        1.41510
H         -0.52531       -5.97067        0.30695
H         -0.56929       -5.24930       -1.30086
H         -0.18394       -4.25428        0.09776
H         -2.86206       -6.86845       -0.06551
H         -4.18389       -5.78957       -0.49332
H         -2.90422       -6.13755       -1.66498
H         -2.39239       -5.47670        1.98251
H         -2.06610       -3.75077        1.84688
H         -3.68842       -4.36019        1.55123
C         -6.09326       -1.12903       -3.08393
C         -5.01531       -2.12715       -3.54642
C         -5.68956       -3.49334       -3.77974
C         -4.41033       -1.65062       -4.87703
H         -6.91125       -1.07671       -3.80222
H         -6.50777       -1.42870       -2.12156
H         -5.68195       -0.12624       -2.97718
H         -6.47839       -3.41201       -4.52753
H         -4.97138       -4.22992       -4.13949
H         -6.14282       -3.86872       -2.86238
H         -3.95369       -0.66741       -4.77162
H         -3.64706       -2.34776       -5.22121
H         -5.17501       -1.58128       -5.65057
C         -3.97326        4.58196        4.04878
C         -2.86468        4.13195        3.07755
C         -2.43597        5.33778        2.22427
C         -1.66916        3.63051        3.91272
H         -4.33049        3.74456        4.64795
H         -3.60141        5.34481        4.73272
H         -4.81935        5.00987        3.51166
H         -3.27685        5.71795        1.64448
H         -2.06153        6.14771        2.85003
H         -1.64969        5.06106        1.52414
H         -1.94226        2.73931        4.47730
H         -0.81759        3.37683        3.28360
H         -1.34044        4.39166        4.61992
C         -7.10934        1.46572       -0.23777
C         -6.55912        1.12495        1.15794
C         -7.43602        1.81938        2.21775
C         -6.63637       -0.39724        1.38943
H         -8.14538        1.14333       -0.34013
H         -7.06929        2.54013       -0.41610
H         -6.52656        0.97758       -1.01721
H         -8.46276        1.45704        2.16741
H         -7.06380        1.62210        3.22293
H         -7.46207        2.89778        2.06303
H         -6.09723       -0.94753        0.61947
H         -6.20330       -0.66124        2.35398
H         -7.67039       -0.74132        1.37751
C          2.48389       -5.66477        2.50151
C          2.22955       -4.30423        3.17109
C          0.71033       -4.10211        3.33933
C          2.86451       -4.28712        4.57582
H          3.55195       -5.85389        2.39658
H          2.05290       -6.47618        3.08773
H          2.04045       -5.69325        1.50627
H          0.29315       -4.84031        4.02399
H          0.49009       -3.11236        3.73935
H          0.19198       -4.21264        2.38927
H          3.92596       -4.52766        4.54097
H          2.75522       -3.30431        5.03398
H          2.38550       -5.01760        5.22759
C          7.01993       -3.12072        1.05319
C          6.34731       -1.83111        1.55802
C          6.79355       -1.54143        3.00284
C          6.80242       -0.66119        0.66348
H          8.10490       -3.01763        1.04588
H          6.77050       -3.97176        1.68581
H          6.69578       -3.35149        0.03854
H          6.30593       -0.64372        3.38245
H          6.54078       -2.36586        3.66847
H          7.87138       -1.38872        3.05535
H          6.52030       -0.83041       -0.37541
H          6.36147        0.27909        0.99408
H          7.88582       -0.54685        0.69631
C          1.17765        4.78368        1.12600
C          2.48209        4.88858        0.31324
C          2.28843        5.96385       -0.77270
C          3.62232        5.30313        1.25930
H          0.35491        4.45471        0.49206
H          1.28318        4.07948        1.95081
H          0.90672        5.74964        1.55184
H          3.20571        6.13337       -1.33490
H          1.51458        5.66284       -1.47787
H          1.99053        6.91452       -0.33077
H          3.39543        6.24708        1.75452
H          3.77783        4.54639        2.02806
H          4.55899        5.42529        0.71631
C          5.40213        3.34513       -3.83969
C          5.51586        2.25192       -2.75938
C          5.66859        0.88819       -3.46140
C          6.77032        2.50673       -1.90428
H          5.36571        4.34024       -3.39865
H          6.25840        3.31510       -4.51332
H          4.50171        3.21171       -4.43736
H          4.78868        0.65268       -4.05912
H          6.53072        0.89120       -4.12821
H          5.81804        0.08717       -2.73802
H          6.72225        3.47977       -1.41640
H          6.86779        1.74904       -1.12758
H          7.67216        2.48176       -2.51570
H         -1.57648        0.20063       -4.47650
H          1.38735        1.48094       -5.47129
H         -1.61281       -1.32164       -5.36607
H         -0.28722       -0.19431       -5.61593
H          1.97843        0.29336       -4.30400
H          2.67717        1.90576       -4.34930
