105
-153.07158049
Cl        -0.84145        2.13051       -2.88470
Pd         0.06382        1.53020       -0.91602
P          1.35025        0.73901        0.86051
N          0.62413       -0.49081        1.88238
C          0.03124       -1.72477        1.65866
C         -0.09710       -2.32349        0.38159
C         -0.82008       -3.52674        0.24819
C         -0.95099       -4.14118       -1.12619
C         -1.47984       -5.58420       -1.13518
C         -2.63915       -5.75293       -0.14883
C         -2.18962       -5.40868        1.27907
C         -1.38891       -4.13444        1.36922
C         -1.20653       -3.55672        2.61850
C         -0.51284       -2.38324        2.76110
H         -0.40955       -1.93463        3.73387
H         -1.63697       -4.03515        3.48197
H         -3.06026       -5.32768        1.94254
H         -3.46306       -5.09036       -0.44194
H         -1.78542       -5.88156       -2.14826
H         -1.61061       -3.50301       -1.72586
C          0.66585       -1.83895       -0.79413
C         -0.01156       -1.22302       -1.88126
C          0.69635       -1.00001       -3.06565
C          2.00795       -1.37965       -3.18743
C          2.67133       -2.02179       -2.14899
C          4.07868       -2.50702       -2.37706
C          4.43112       -3.71988       -1.50470
C          4.11357       -3.42844       -0.03508
C          2.63227       -3.06150        0.16740
C          2.00200       -2.25472       -0.94640
H          2.04678       -3.98014        0.29331
H          4.74516       -2.60117        0.30670
H          5.48608       -4.00229       -1.63074
H          4.77475       -1.68647       -2.17174
H          2.53518       -1.19618       -4.10824
H          0.19838       -0.50557       -3.88108
N         -1.34915       -0.81632       -1.79955
P         -1.84461        0.18948       -0.43361
C         -2.80837       -0.74587        0.75226
C         -3.55330       -1.80276        0.28781
C         -4.35443       -2.51552        1.16173
C         -4.41071       -2.17033        2.50518
C         -3.67457       -1.07877        2.94702
C         -2.87798       -0.36437        2.07075
H         -2.30738        0.48318        2.41159
H         -3.72695       -0.79348        3.98382
C         -5.27175       -2.93452        3.44916
H         -4.93840       -3.34656        0.80522
H         -3.49925       -2.06625       -0.75658
C         -2.95916        1.49361       -0.97093
C         -2.92153        2.71859       -0.34721
C         -3.78281        3.72128       -0.75329
C         -4.68699        3.50166       -1.78372
C         -4.72428        2.25021       -2.38403
C         -3.86102        1.24856       -1.97798
H         -3.89187        0.27491       -2.43993
H         -5.43324        2.06512       -3.17283
C         -5.62803        4.57489       -2.20799
H         -3.75578        4.68379       -0.27169
H         -2.21643        2.88889        0.45094
H         -1.70109       -0.33862       -2.61936
H          0.81017       -0.22955        2.84311
C          1.30458        2.24745        1.83668
C          2.42530        3.02229        2.01703
C          2.33955        4.19380        2.74637
C          1.12884        4.60091        3.29122
C          0.00946        3.80130        3.10316
C          0.09856        2.62947        2.37388
H         -0.76824        2.00905        2.21595
H         -0.93232        4.10248        3.52918
C          1.04081        5.85213        4.09390
H          3.21478        4.80335        2.89307
H          3.36017        2.71452        1.57810
C          3.08237        0.35736        0.59729
C          3.72126        0.68579       -0.57428
C          5.07383        0.43883       -0.71466
C          5.79799       -0.13638        0.32040
C          5.14271       -0.43483        1.50745
C          3.78735       -0.19083        1.64277
H          3.27492       -0.41908        2.56398
H          5.69906       -0.86236        2.32402
C          7.25728       -0.39230        0.17382
H          5.57825        0.70161       -1.62884
H          3.16546        1.15931       -1.36580
Cl         1.76230        2.98059       -1.19686
H         -1.58643       -6.22944        1.68510
H         -0.66874       -6.27018       -0.86027
H         -3.04845       -6.77201       -0.19688
H          0.02481       -4.09974       -1.62617
H          4.39075       -4.28368        0.59709
H          2.50665       -2.51066        1.10738
H          4.21224       -2.74751       -3.43951
H          3.84912       -4.58866       -1.83728
H         -5.40762       -3.96366        3.11360
H         -4.82825       -2.96807        4.44533
H         -6.25733       -2.47481        3.53381
H         -6.55118        4.53239       -1.62840
H         -5.18698        5.56271       -2.06756
H         -5.88751        4.47626       -3.26295
H          1.23688        5.65092        5.14795
H          1.76635        6.59126        3.75138
H          0.04976        6.30126        4.01532
H          7.83695        0.47165        0.50163
H          7.56767       -1.25234        0.76900
H          7.51793       -0.59861       -0.86530
