171
-217.84313958
P         -1.58944        0.35953       -0.51424
P          1.60201       -0.35631       -0.27618
C         -0.80699        1.35625       -1.78817
C          1.05041       -1.29607       -1.70175
C          0.08088        0.78691       -2.69399
C          0.75859        1.62853       -3.59775
C          0.49281        2.98750       -3.58831
C         -0.41590        3.52799       -2.70394
C         -1.05712        2.70715       -1.79739
C          1.32952       -2.64013       -1.74475
C          0.87025       -3.41104       -2.79456
C          0.11020       -2.82908       -3.78682
C         -0.18318       -1.47557       -3.76057
C          0.31674       -0.68271       -2.71017
Cl         1.30002        0.33685        2.97635
Cl        -1.85533       -0.42048        2.64147
C         -0.99541       -0.87627       -4.85432
C          1.75850        1.09147       -4.56163
H         -0.61934        4.58633       -2.71400
H         -1.75714        3.12441       -1.09203
H          1.91082       -3.08821       -0.95509
H          1.10015       -4.46327       -2.83408
H          1.01066        3.62507       -4.28499
H         -0.26237       -3.42900       -4.59993
C         -3.71594       -3.40513       -1.84592
C         -2.73565       -3.49334       -0.86448
C         -2.06648       -2.32942       -0.51178
C         -2.38079       -1.13360       -1.10821
C         -3.35384       -1.06185       -2.07450
C         -4.05098       -2.20163       -2.45724
H         -4.23931       -4.29609       -2.13388
H         -1.29905       -2.35230        0.24262
H         -3.58250       -0.10642       -2.51666
C         -4.49740        2.75664        2.01676
C         -3.15103        3.10239        2.02829
C         -2.29000        2.38242        1.21082
C         -2.75593        1.34599        0.44063
C         -4.08564        1.00763        0.45582
C         -4.98637        1.70666        1.24780
H         -5.18042        3.31479        2.62724
H         -1.23968        2.61707        1.18618
H         -4.42206        0.18148       -0.14544
C          4.22530       -2.82822        2.48451
C          2.88314       -3.16938        2.35573
C          2.10319       -2.42499        1.48104
C          2.64380       -1.37408        0.78285
C          3.96805       -1.04634        0.92865
C          4.79007       -1.77084        1.77999
H          4.84241       -3.39196        3.15712
H          1.05678       -2.65105        1.36342
H          4.36221       -0.20452        0.38674
C          3.92139        3.41507       -1.18112
C          2.86338        3.47699       -0.28189
C          2.14361        2.31351       -0.04769
C          2.47300        1.14894       -0.69419
C          3.51998        1.10183       -1.58116
C          4.27177        2.24219       -1.83973
H          4.50715        4.29634       -1.36258
H          1.33539        2.30754        0.66365
H          3.75512        0.16183       -2.05100
Pd        -0.11409       -0.06238        1.26795
C         -0.98463       -5.26486       -0.65440
C         -2.37240       -4.81493       -0.17152
C         -3.39225       -5.92506       -0.49128
C         -2.34832       -4.61054        1.35689
H         -0.68063       -6.19197       -0.16882
H         -0.98892       -5.43216       -1.73115
H         -0.23437       -4.50616       -0.43730
H         -3.15053       -6.83935        0.05064
H         -4.39953       -5.62437       -0.20335
H         -3.39305       -6.16689       -1.55381
H         -3.31000       -4.23957        1.71050
H         -2.13744       -5.54747        1.87211
H         -1.58439       -3.89407        1.65450
C         -5.90126       -3.43643       -3.70079
C         -5.18103       -2.08994       -3.49246
C         -4.59835       -1.63524       -4.84120
C         -6.21601       -1.05902       -3.00414
H         -5.21655       -4.19405       -4.08146
H         -6.33513       -3.79715       -2.76830
H         -6.71089       -3.33364       -4.42327
H         -4.09728       -0.67233       -4.74944
H         -3.87510       -2.36169       -5.21016
H         -5.38319       -1.53296       -5.59048
H         -6.60910       -1.34128       -2.02758
H         -5.77420       -0.06740       -2.91678
H         -7.05380       -0.98797       -3.69757
C         -2.37638        5.47728        1.97359
C         -2.60590        4.25735        2.88091
C         -1.27415        3.84164        3.53994
C         -3.58982        4.64391        4.00284
H         -1.68979        5.23578        1.16363
H         -3.31376        5.80655        1.52564
H         -1.95742        6.31139        2.53619
H         -0.49500        3.67200        2.79925
H         -0.91545        4.61664        4.21694
H         -1.39818        2.92298        4.11297
H         -4.51531        5.05138        3.59730
H         -3.83365        3.77956        4.62036
H         -3.15716        5.40590        4.65106
C         -7.06135        1.60032       -0.14641
C         -6.46722        1.30106        1.24079
C         -7.27597        2.07246        2.30155
C         -6.58743       -0.20574        1.54327
H         -8.11171        1.31336       -0.19313
H         -6.98970        2.66344       -0.37528
H         -6.52916        1.05605       -0.92485
H         -8.31588        1.74602        2.30735
H         -6.87066        1.90552        3.29941
H         -7.27061        3.14334        2.09972
H         -6.12383       -0.44315        2.50052
H         -7.63230       -0.51224        1.58824
H         -6.10002       -0.80796        0.77768
C          1.10286       -3.68922        4.03735
C          2.22542       -4.29199        3.17063
C          3.23597       -4.99483        4.09677
C          1.63204       -5.33838        2.21060
H          0.33451       -3.22137        3.42310
H          0.62284       -4.45609        4.64479
H          1.50129       -2.92657        4.70598
H          2.75154       -5.78838        4.66562
H          4.04502       -5.44692        3.52334
H          3.66671       -4.29360        4.81124
H          0.86717       -4.89684        1.57482
H          2.40587       -5.75356        1.56523
H          1.17316       -6.15927        2.76140
C          6.32916        0.09123        2.44406
C          6.26146       -1.35724        1.92370
C          6.94950       -1.44448        0.54842
C          7.01764       -2.26841        2.90902
H          7.36256        0.41005        2.57880
H          5.85471        0.78455        1.75034
H          5.81971        0.17899        3.40342
H          6.47808       -0.77829       -0.17308
H          8.00112       -1.16735        0.61960
H          6.89290       -2.45855        0.15327
H          7.00438       -3.30526        2.57352
H          8.06036       -1.96299        2.99540
H          6.57700       -2.22049        3.90464
C          1.04800        5.15317        0.11710
C          2.48882        4.75531        0.48006
C          3.42364        5.92778        0.12740
C          2.58885        4.48871        1.99417
H          0.34947        4.35197        0.35236
H          0.73816        6.04353        0.66386
H          0.96596        5.36523       -0.94833
H          3.14228        6.82508        0.67851
H          4.45761        5.69513        0.38148
H          3.37256        6.16421       -0.93529
H          2.33060        5.37988        2.56584
H          1.91695        3.68903        2.30240
H          3.60202        4.19366        2.26624
C          5.67045        0.85467       -3.45244
C          5.50533        2.21870       -2.75362
C          6.76024        2.48444       -1.90173
C          5.37374        3.30821       -3.83466
H          5.82176        0.05639       -2.72618
H          4.79541        0.61188       -4.05419
H          6.53563        0.86226       -4.11526
H          6.70987        3.46020       -1.41970
H          6.86182        1.73142       -1.12038
H          7.66115        2.45952       -2.51452
H          4.47019        3.16226       -4.42513
H          5.32733        4.30323       -3.39417
H          6.22605        3.28700       -4.51362
H         -1.70348       -1.60098       -5.25674
H          1.36089        1.09124       -5.57742
H         -0.35994       -0.54391       -5.67584
H         -1.56499       -0.01699       -4.49724
H          2.05028        0.07083       -4.31093
H          2.66201        1.70136       -4.55865
