105
-153.06640388
Cl        -0.60171        2.43454       -2.80766
Pd         0.20173        1.59264       -0.88012
P          1.33632        0.64105        0.95932
N          1.32112       -1.10449        1.13104
C          0.23849       -1.98123        1.29379
C         -0.10699       -2.83176        0.21455
C         -1.10260       -3.80871        0.37067
C         -1.43261       -4.70289       -0.79932
C         -2.30782       -5.91451       -0.43873
C         -3.43196       -5.51552        0.52371
C         -2.85511       -4.93542        1.82460
C         -1.75939       -3.92564        1.59805
C         -1.40413       -3.08424        2.64878
C         -0.42847       -2.12989        2.50575
H         -0.17060       -1.48786        3.32740
H         -1.91601       -3.18708        3.59053
H         -3.65114       -4.46834        2.41870
H         -4.07040       -4.76355        0.04285
H         -2.71928       -6.38278       -1.34397
H         -1.93404       -4.10659       -1.56997
C          0.55173       -2.56692       -1.09063
C         -0.09499       -1.67230       -1.98269
C          0.62654       -1.15784       -3.06041
C          1.92213       -1.54909       -3.28337
C          2.56099       -2.45946       -2.44648
C          3.99575       -2.82194       -2.75189
C          4.60751       -3.89023       -1.82753
C          4.08873       -3.75223       -0.39225
C          2.56025       -3.89248       -0.36575
C          1.87787       -2.96492       -1.33734
H          2.27654       -4.92345       -0.60797
H          4.36855       -2.76701        0.00202
H          5.70532       -3.84168       -1.84875
H          4.59842       -1.90794       -2.69950
H          2.46568       -1.14435       -4.12041
H          0.14783       -0.44145       -3.70445
N         -1.42735       -1.27940       -1.75287
P         -1.71854        0.21464       -0.86889
C         -2.39828       -0.08643        0.75909
C         -1.89996        0.60866        1.83201
C         -2.43812        0.41755        3.09026
C         -3.49645       -0.46076        3.27650
C         -3.99611       -1.14643        2.17667
C         -3.45093       -0.95576        0.91915
H         -3.84719       -1.47767        0.06278
H         -4.81125       -1.83654        2.31202
C         -4.05205       -0.69767        4.63716
H         -2.03135        0.94562        3.93554
H         -1.09339        1.30317        1.68062
C         -2.90901        1.22531       -1.74520
C         -3.31931        0.83173       -2.99517
C         -4.22869        1.60496       -3.69439
C         -4.72496        2.77925       -3.14352
C         -4.30482        3.15232       -1.87324
C         -3.39524        2.37776       -1.17603
H         -3.06061        2.66665       -0.19218
H         -4.69232        4.05574       -1.43425
C         -5.71835        3.60353       -3.88594
H         -4.55514        1.30209       -4.67452
H         -2.91784       -0.07560       -3.41730
H         -2.00432       -1.92752       -1.23202
H          1.83151       -1.26940        0.27133
C          1.05153        1.52811        2.48508
C          1.17028        0.87363        3.68690
C          0.91433        1.55222        4.86467
C          0.55360        2.89310        4.84229
C          0.45800        3.54049        3.61711
C          0.71561        2.86034        2.44140
H          0.67819        3.36286        1.48789
H          0.18211        4.58073        3.58935
C          0.24455        3.61266        6.10887
H          0.99119        1.04255        5.80990
H          1.47408       -0.16025        3.69635
C          3.04557        0.92627        0.46639
C          3.91635        1.57379        1.30993
C          5.22588        1.78249        0.91829
C          5.67219        1.33904       -0.31927
C          4.77511        0.69495       -1.15993
C          3.46708        0.48404       -0.76442
H          2.77099       -0.01838       -1.41623
H          5.10566        0.36945       -2.13120
C          7.07298        1.59044       -0.75700
H          5.90941        2.29742        1.57156
H          3.56814        1.91841        2.26991
Cl         1.78473        3.19263       -0.81012
H         -2.45997       -5.74601        2.44838
H         -1.68522       -6.68503        0.03299
H         -4.08950       -6.37118        0.73287
H         -0.49368       -5.03744       -1.25861
H          4.56536       -4.48561        0.27332
H          2.17827       -3.71321        0.64684
H          4.05661       -3.14828       -3.79787
H          4.35252       -4.88828       -2.20576
H         -3.98707        0.20229        5.25033
H         -5.10177       -0.99057        4.58896
H         -3.50388       -1.49172        5.14609
H         -6.73547        3.27717       -3.66485
H         -5.63615        4.65714       -3.61548
H         -5.56633        3.52660       -4.96343
H         -0.79141        3.44447        6.40656
H          0.88816        3.27174        6.92110
H          0.39260        4.68784        5.99875
H          7.75126        1.63211        0.09636
H          7.42534        0.80013       -1.42139
H          7.14637        2.53805       -1.29225
