111
-148.55458287
P         -2.48614       -2.07858       -1.06140
P          0.14067       -0.38369       -0.52962
C         -1.33994       -1.73747       -2.42555
C         -0.17979       -1.03518       -2.17930
C         -3.25128       -3.75799       -1.19961
C         -2.66271       -4.71620       -0.18725
C         -1.62616       -2.16431       -3.70652
H         -2.54439       -2.69450       -3.89909
C         -0.74107       -1.89460       -4.73623
H         -0.96362       -2.22792       -5.73673
C          0.42485       -1.19704       -4.48444
H          1.11267       -0.98568       -5.28657
C          0.70444       -0.76166       -3.20147
H          1.60224       -0.20222       -2.98913
Pd        -1.33382       -1.50333        0.85309
Cl        -3.09659       -2.27385        2.00848
Cl        -0.08287       -0.89391        2.61701
C         -4.75228       -3.46651       -1.01407
C         -4.00295       -1.01980       -1.09128
H         -3.11743       -5.70666       -0.26349
H         -1.58426       -4.82569       -0.32471
H         -2.82771       -4.35582        0.82915
H         -5.00705       -3.59550        0.04692
H         -5.35780       -4.20890       -1.55594
H         -4.14091       -0.65791       -0.06351
C         -5.11435       -2.02039       -1.45910
C         -3.84860        0.13884       -2.05236
H         -3.05411       -4.10803       -2.22078
H         -5.26405       -1.99845       -2.54735
H         -6.07395       -1.70383       -1.02278
H         -4.75345        0.74975       -2.09119
H         -3.01739        0.78425       -1.76073
H         -3.64585       -0.22012       -3.06310
C         -1.17250        3.96131       -0.16456
C         -1.06515        3.37414       -1.45196
C         -0.65185        2.05517       -1.54001
C         -0.42901        1.31029       -0.41209
C         -0.64294        1.84070        0.83211
C         -1.04904        3.15277        0.99378
O         -1.36256        5.36299       -0.03684
C         -1.35454        4.15689       -2.74231
H         -0.48724        1.59211       -2.49672
H         -0.47268        1.20559        1.68399
C         -1.30900        3.67802        2.41367
C          4.43169       -0.77878        0.93681
C          3.77868        0.47904        0.98316
C          2.47470        0.55471        0.52615
C          1.84797       -0.53428       -0.02012
C          2.50662       -1.72761       -0.15767
C          3.81590       -1.87185        0.27355
O          5.68247       -0.95312        1.58671
C          4.43569        1.74235        1.56082
H          1.91915        1.47191        0.61036
H          1.97478       -2.55354       -0.59795
C          4.53191       -3.21348        0.05185
C         -2.45875        5.20570       -2.51670
C         -0.06524        4.84015       -3.22224
C         -1.85482        3.21042       -3.85738
C         -1.83751        2.54428        3.32295
C          0.00609        4.20867        3.00495
C         -2.37816        4.78529        2.41150
C         -0.15174        6.10515        0.03964
H         -2.71016        5.71636       -3.44594
H         -3.36297        4.73418       -2.13315
H         -2.14718        5.96170       -1.80014
H         -0.23630        5.39159       -4.14642
H          0.31043        5.53931       -2.47909
H          0.71523        4.10265       -3.40826
H         -1.07591        2.52352       -4.18487
H         -2.70811        2.62544       -3.51604
H         -2.16900        3.77777       -4.73317
H         -2.69775        2.05265        2.86945
H         -1.07541        1.79057        3.51470
H         -2.14795        2.93714        4.29075
H          0.41207        5.01735        2.40170
H         -0.14404        4.58474        4.01656
H          0.75546        3.41855        3.04664
H         -2.60680        5.11133        3.42584
H         -2.04658        5.65694        1.85312
H         -3.29990        4.42706        1.95429
H         -0.10278        6.63091        0.99298
H          0.70863        5.44108       -0.05331
H         -0.12737        6.84619       -0.75924
C          5.57629       -1.36373        2.94420
C          4.13678        1.82462        3.06557
C          5.95557        1.73874        1.31802
C          3.87317        3.01149        0.87891
C          4.27032       -4.13343        1.25407
C          4.00500       -3.90835       -1.22444
C          6.04564       -3.01048       -0.14243
H          3.06187        1.85065        3.24321
H          4.53736        0.96366        3.59506
H          4.57363        2.72225        3.50242
H          6.41172        2.66157        1.67552
H          6.43827        0.91234        1.83348
H          6.17380        1.64194        0.25502
H          2.82962        3.18244        1.13939
H          4.42798        3.89614        1.19066
H          3.94800        2.93463       -0.20548
H          4.75372       -5.10057        1.11849
H          4.64735       -3.69572        2.17513
H          3.20180       -4.30457        1.38264
H          2.97320       -4.23661       -1.10862
H          4.05793       -3.23705       -2.08121
H          4.59744       -4.79335       -1.45560
H          6.54234       -3.95462       -0.36465
H          6.50899       -2.59808        0.75029
H          6.23797       -2.32377       -0.96607
H          4.52846       -1.47264        3.22716
H          6.09086       -2.31480        3.08013
H          6.05229       -0.62486        3.58860
