111
-148.55503047
P         -2.52985       -2.04750       -1.03748
P          0.14597       -0.41331       -0.49120
C         -1.35693       -1.74882       -2.38852
C         -0.17909       -1.07860       -2.13565
C         -3.34062       -3.70545       -1.17624
C         -2.79009       -4.67736       -0.15560
C         -1.64142       -2.17921       -3.66868
H         -2.57288       -2.68364       -3.86685
C         -0.73760       -1.94600       -4.69099
H         -0.95906       -2.28238       -5.69071
C          0.44556       -1.28079       -4.43271
H          1.14809       -1.09748       -5.22896
C          0.72347       -0.84108       -3.15089
H          1.63459       -0.30522       -2.93440
Pd        -1.37911       -1.48690        0.87802
Cl        -3.10536       -2.26344        2.07840
Cl        -0.09645       -0.86903        2.61982
C         -4.83445       -3.37081       -1.00664
C         -4.01563       -0.94658       -1.09000
H         -2.95755       -4.31122        0.85821
H         -3.27042       -5.65533       -0.23578
H         -1.71345       -4.81604       -0.27995
H         -5.10299       -3.48664        0.05248
H         -5.45548       -4.09890       -1.55039
H         -4.15376       -0.57398       -0.06607
C         -5.15117       -1.91772       -1.46313
C         -3.81943        0.20046       -2.05731
H         -3.14388       -4.06493       -2.19418
H         -5.28958       -1.89799       -2.55293
H         -6.10575       -1.57173       -1.03827
H         -3.61445       -0.17126       -3.06298
H         -4.70734        0.83462       -2.11125
H         -2.97511        0.82608       -1.76050
C         -1.14574        3.94582       -0.20964
C         -0.99909        3.34448       -1.48652
C         -0.59220        2.02199       -1.54701
C         -0.41162        1.28735       -0.40488
C         -0.66160        1.83311        0.82583
C         -1.06566        3.14873        0.96035
O         -1.33117        5.34984       -0.10273
C         -1.23958        4.11531       -2.79391
H         -0.40030        1.54760       -2.49301
H         -0.52010        1.20809        1.69005
C         -1.37266        3.68911        2.36512
C          4.45596       -0.78613        0.92849
C          3.77436        0.45197        1.04242
C          2.46439        0.51871        0.60141
C          1.85748       -0.55666        0.00771
C          2.54273       -1.72568       -0.19445
C          3.85960       -1.85921        0.21667
O          5.71624       -0.96316        1.55898
C          4.40836        1.70182        1.67267
H          1.88934        1.41795        0.73379
H          2.02715       -2.54071       -0.67261
C          4.60753       -3.16791       -0.08299
C          0.06987        4.78503       -3.23695
C         -1.70847        3.16028       -3.91534
C         -2.34348        5.17364       -2.61657
C         -2.43480        4.80196        2.31441
C         -1.93982        2.56694        3.26551
C         -0.07657        4.21838        2.99805
C         -0.11893        6.08516        0.00889
H          0.85072        4.04041       -3.39008
H         -0.06636        5.32891       -4.17135
H          0.42571        5.48848       -2.48809
H         -0.92348        2.46528       -4.20955
H         -2.57635        2.58398       -3.59678
H         -1.98958        3.72035       -4.80691
H         -2.55977        5.67621       -3.55897
H         -3.26339        4.71212       -2.25906
H         -2.05105        5.93503       -1.89766
H         -2.69715        5.13933        3.31682
H         -2.07887        5.66619        1.75950
H         -3.34190        4.44403        1.82857
H         -1.18945        1.81092        3.49140
H         -2.28235        2.97067        4.21788
H         -2.78617        2.07572        2.78615
H          0.66575        3.42431        3.07589
H          0.35613        5.01792        2.40119
H         -0.26106        4.60661        3.99933
H          0.73974        5.41466       -0.04584
H         -0.06104        6.81693       -0.79678
H         -0.10062        6.62125        0.95754
C          5.63128       -1.44227        2.89532
C          3.81495        2.98776        1.05099
C          4.11730        1.70975        3.18114
C          5.92648        1.74204        1.42203
C          4.08447       -3.80772       -1.38930
C          6.11324       -2.91476       -0.28117
C          4.38412       -4.15672        1.07120
H          4.35224        3.86941        1.39970
H          3.88544        2.96119       -0.03608
H          2.76940        3.12415        1.32328
H          4.54003        2.59461        3.65624
H          3.04318        1.70736        3.36553
H          4.53725        0.83310        3.66835
H          6.14023        1.69613        0.35471
H          6.36476        2.65829        1.81684
H          6.43018        0.90492        1.89862
H          4.11052       -3.09073       -2.20952
H          4.69692       -4.66328       -1.67314
H          3.06282       -4.16866       -1.28111
H          6.27840       -2.18067       -1.06908
H          6.57563       -2.53790        0.62765
H          6.63185       -3.83231       -0.55800
H          4.89150       -5.10187        0.87965
H          3.32208       -4.36343        1.20111
H          4.76006       -3.75807        2.01029
H          4.58899       -1.59524        3.17829
H          6.17385       -2.38356        2.98146
H          6.09002       -0.72221        3.57267
