45
-71.82142415
C          0.37702        1.48500        3.15826
P         -0.17342        0.76802        1.57488
P         -0.13107        0.79947       -1.56559
C          0.46023        1.54466       -3.12097
Cl         2.94605       -0.02727        1.68336
H          0.77670        2.48153        2.99363
H         -0.35507        1.61662       -3.83506
Cl         2.98560       -0.02049       -1.60457
C         -1.33444        1.82904        0.68826
C         -1.31525        1.84355       -0.68979
C         -2.22443        2.61075       -1.38900
C         -3.15200        3.37297       -0.70102
C         -3.17124        3.35849        0.68022
C         -2.26295        2.58182        1.37769
H         -2.20911        2.60331       -2.46676
H         -3.86240        3.97445       -1.24395
H         -3.89655        3.94887        1.21558
H         -2.27721        2.55244        2.45510
Pd         1.50220        0.40647        0.02280
H          1.24762        0.92882       -3.54619
H          1.15285        0.86120        3.59298
H          0.85477        2.53821       -2.92828
C         -1.74522       -3.42434       -1.99570
C         -2.62096       -2.37280       -1.80727
C         -2.13507       -1.08240       -1.69673
C         -0.78108       -0.85600       -1.78103
C          0.09554       -1.89929       -1.96874
C         -0.38641       -3.19049       -2.07706
H         -2.12304       -4.43052       -2.07568
H         -3.68037       -2.55712       -1.73740
H         -2.80280       -0.25239       -1.53084
H          1.15361       -1.69314       -2.00858
H          0.29757       -4.01109       -2.21810
C         -1.79350       -3.46368        1.88789
C         -0.43672       -3.23108        2.00075
C          0.04635       -1.93777        1.92817
C         -0.82718       -0.89128        1.74369
C         -2.17910       -1.11631        1.62830
C         -2.66615       -2.40883        1.70351
H         -2.17210       -4.47138        1.94019
H          0.24492       -4.05416        2.13863
H          1.10317       -1.73195        1.99463
H         -2.84400       -0.28332        1.46608
H         -3.72387       -2.59206        1.60941
H         -0.45671        1.54485        3.85191
