111
-148.55616002
P         -2.31276       -2.30047       -1.03848
P          0.07639       -0.30073       -0.46825
C         -1.26185       -1.75127       -2.40267
C         -0.25826       -0.84000       -2.15861
C         -2.46222       -4.14079       -0.96751
C         -1.66582       -4.69478        0.19410
C         -1.49260       -2.20040       -3.68694
H         -2.27515       -2.92002       -3.86594
C         -0.72423       -1.71795       -4.73233
H         -0.90385       -2.06572       -5.73653
C          0.26326       -0.78210       -4.49103
H          0.85414       -0.39750       -5.30599
C          0.49459       -0.33941       -3.20088
H          1.25406        0.39993       -2.99931
Pd        -1.54980       -1.27920        0.88340
Cl        -3.43897       -1.94608        1.89589
Cl        -0.74380       -0.18049        2.66716
C         -3.98245       -4.36207       -0.85969
C         -4.09210       -1.83767       -1.28582
H         -1.75610       -5.78177        0.25837
H         -0.60545       -4.44615        0.10335
H         -2.02050       -4.27718        1.13864
H         -4.25214       -4.43853        0.20275
H         -4.26199       -5.32879       -1.30549
H         -4.42000       -1.39627       -0.33548
C         -4.78011       -3.19735       -1.51061
C         -4.27650       -0.85217       -2.42161
H         -2.08173       -4.52256       -1.92389
H         -4.86910       -3.37469       -2.59112
H         -5.81292       -3.16984       -1.13149
H         -3.97030       -1.29139       -3.37195
H         -5.32144       -0.54991       -2.52209
H         -3.67587        0.04707       -2.27286
C         -0.98901        4.10445       -0.06358
C         -2.00768        3.13560       -0.25433
C         -1.63135        1.81188       -0.40982
C         -0.31974        1.43323       -0.29279
C          0.65482        2.34838        0.00711
C          0.34828        3.68947        0.16505
O         -1.29852        5.48825       -0.14204
C         -3.50106        3.49407       -0.30181
H         -2.36384        1.05166       -0.61872
H          1.66611        1.99810        0.11595
C          1.46236        4.67130        0.56049
C          4.41319       -0.94787        0.80804
C          4.02189       -1.28545       -0.51456
C          2.70044       -1.08688       -0.87827
C          1.76925       -0.64753        0.02805
C          2.12112       -0.45508        1.33847
C          3.42162       -0.63604        1.77470
O          5.78823       -0.84063        1.14006
C          4.98317       -1.85672       -1.57059
H          2.38845       -1.26898       -1.89066
H          1.35323       -0.15948        2.03100
C          3.69757       -0.50756        3.28239
C         -4.35229        2.33935        0.27571
C         -3.80334        4.73943        0.55127
C         -3.91853        3.73726       -1.75977
C          2.13620        5.21424       -0.70829
C          0.90318        5.83306        1.40191
C          2.53032        3.96342        1.42524
C         -1.21465        6.02273       -1.45703
H         -5.39631        2.63695        0.36959
H         -4.32848        1.45905       -0.36372
H         -3.99524        2.05217        1.26441
H         -4.87219        4.95052        0.57204
H         -3.46620        4.59215        1.57675
H         -3.30201        5.62069        0.15920
H         -3.35426        4.55721       -2.19851
H         -3.73839        2.84962       -2.36575
H         -4.97806        3.98273       -1.82705
H          2.55986        4.40130       -1.29757
H          1.42307        5.74261       -1.33682
H          2.94089        5.90509       -0.45789
H          0.38056        5.45387        2.27946
H          1.70217        6.49206        1.74072
H          0.20113        6.43468        0.82979
H          2.06730        3.46627        2.27690
H          3.08736        3.22151        0.85492
H          3.25489        4.68062        1.81018
H         -0.89021        5.25432       -2.15988
H         -2.18932        6.40387       -1.76111
H         -0.50484        6.84976       -1.46978
C          6.30062        0.46538        0.93403
C          6.29243       -2.37385       -0.94939
C          4.31597       -3.05592       -2.28012
C          5.30210       -0.77085       -2.61141
C          2.65018       -1.33080        4.06474
C          5.08214       -1.05149        3.67449
C          3.58888        0.96865        3.69806
H          6.86993       -1.56135       -0.51465
H          6.08459       -3.09550       -0.16018
H          6.91817       -2.85884       -1.69825
H          3.43938       -2.75358       -2.85063
H          5.00790       -3.52871       -2.97669
H          4.00421       -3.80675       -1.55461
H          5.78942        0.08564       -2.14951
H          5.96452       -1.15648       -3.38596
H          4.39244       -0.41511       -3.09438
H          2.86340       -1.31609        5.13318
H          1.64357       -0.93883        3.93003
H          2.65352       -2.36930        3.73515
H          5.21631       -1.04205        4.75591
H          5.20545       -2.07599        3.32511
H          5.87868       -0.45280        3.23920
H          3.77400        1.08742        4.76526
H          2.59415        1.35884        3.48612
H          4.30979        1.58278        3.16141
H          5.73768        1.18592        1.52551
H          7.34842        0.49206        1.23387
H          6.22062        0.73638       -0.11741
