111
-148.55870976
P         -2.53904       -1.94556       -1.18078
P          0.16740       -0.46426       -0.45503
C         -1.32709       -1.59477       -2.48290
C         -0.13138       -0.99418       -2.15261
C         -3.40983       -3.55465       -1.45885
C         -2.91520       -4.62136       -0.50650
C         -1.59712       -1.91223       -3.79869
H         -2.54198       -2.36237       -4.05547
C         -0.66100       -1.63477       -4.78007
H         -0.87100       -1.88230       -5.80782
C          0.53984       -1.03887       -4.44505
H          1.26729       -0.82072       -5.20951
C          0.80363       -0.71320       -3.12679
H          1.72854       -0.23200       -2.84971
Pd        -1.42664       -1.57770        0.80499
Cl        -3.24571       -2.34348        1.86983
Cl        -0.18966       -1.18369        2.63609
C         -4.89247       -3.17461       -1.28662
C         -3.97994       -0.78462       -1.17821
H         -1.84278       -4.79345       -0.62562
H         -3.08558       -4.32538        0.52957
H         -3.43174       -5.57058       -0.66693
H         -5.18349       -3.35738       -0.24298
H         -5.53142       -3.83557       -1.89186
H         -4.12271       -0.48026       -0.13256
C         -5.14524       -1.68036       -1.63830
C         -3.72168        0.41959       -2.05740
H         -3.20853       -3.84348       -2.49818
H         -5.26426       -1.57504       -2.72545
H         -6.09294       -1.32919       -1.20244
H         -3.51454        0.11275       -3.08428
H         -4.58256        1.09184       -2.07785
H         -2.85821        0.98721       -1.70461
C         -1.13968        3.86916        0.06738
C         -0.85439        3.37451       -1.23319
C         -0.44495        2.05760       -1.35788
C         -0.38328        1.22972       -0.26816
C         -0.76403        1.67176        0.97032
C         -1.19796        2.97082        1.16611
O         -1.28211        5.26391        0.28338
C         -0.97251        4.21338       -2.51661
H         -0.15692        1.66485       -2.31759
H         -0.70731        0.98167        1.79485
C         -1.73979        3.34116        2.55659
C          4.52303       -0.70805        0.83859
C          4.01772        0.48107        0.25358
C          2.68336        0.51238       -0.11442
C          1.88690       -0.59553        0.01296
C          2.39638       -1.77928        0.47653
C          3.72219       -1.87906        0.86669
O          5.81520       -0.71539        1.42820
C          4.87428        1.74058        0.04984
H          2.23843        1.41652       -0.49322
H          1.73340       -2.62413        0.54894
C          4.25653       -3.23464        1.35491
C          0.43609        4.55340       -3.03142
C         -1.72405        3.40295       -3.59614
C         -1.76790        5.51194       -2.29741
C         -2.51837        4.66783        2.54643
C         -2.72031        2.24393        3.02941
C         -0.57236        3.43575        3.55263
C         -0.05226        5.89855        0.59223
H          1.00563        3.64707       -3.23531
H          0.38486        5.13221       -3.95324
H          0.99187        5.13647       -2.29944
H         -1.17821        2.50681       -3.88635
H         -2.70540        3.09840       -3.23407
H         -1.87007        3.99897       -4.49663
H         -2.74390        5.29605       -1.86415
H         -1.24518        6.18546       -1.62247
H         -1.92211        6.04169       -3.23718
H         -2.97379        4.86364        3.51688
H         -1.86585        5.50610        2.31398
H         -3.30955        4.64310        1.79787
H         -3.18165        2.51727        3.97789
H         -3.51507        2.09745        2.29851
H         -2.21973        1.28841        3.17666
H         -0.02916        2.49275        3.60625
H          0.13411        4.20969        3.25876
H         -0.93283        3.67242        4.55332
H          0.64817        5.77787       -0.23267
H         -0.22860        6.96078        0.76282
H          0.38203        5.45709        1.48773
C          5.82673       -0.34943        2.80248
C          4.37500        2.54805       -1.17086
C          4.77281        2.63072        1.29794
C          6.34380        1.37438       -0.22563
C          5.75126       -3.39597        1.02341
C          4.03273       -3.35025        2.87045
C          3.51428       -4.39769        0.65814
H          5.05643        3.36786       -1.39710
H          4.30945        1.91396       -2.05468
H          3.39537        2.98871       -0.99099
H          5.36121        3.54003        1.17804
H          3.73807        2.91966        1.48145
H          5.13264        2.11189        2.18310
H          6.41871        0.71074       -1.08641
H          6.93777        2.26467       -0.43078
H          6.79332        0.86832        0.62495
H          6.35600       -2.65887        1.54553
H          6.11257       -4.38248        1.31277
H          5.92265       -3.27188       -0.04533
H          4.55971       -2.56580        3.40800
H          2.97345       -3.26115        3.11055
H          4.38509       -4.31073        3.24551
H          3.97589       -5.35366        0.90444
H          3.54228       -4.28184       -0.42502
H          2.47294       -4.45658        0.97111
H          4.81420       -0.13617        3.14754
H          6.24904       -1.16178        3.39373
H          6.45190        0.53237        2.94155
