111
-148.55591068
P         -2.24773       -2.14004       -1.32027
P          0.13262       -0.19654       -0.60024
C         -1.17814       -1.51581       -2.63731
C         -0.15151       -0.65298       -2.32238
C         -2.35888       -3.98499       -1.34983
C         -1.45626       -4.60571       -0.30496
C         -1.38508       -1.89793       -3.94711
H         -2.17961       -2.58787       -4.18101
C         -0.56864       -1.39740       -4.94638
H         -0.73000       -1.69206       -5.97047
C          0.45167       -0.52047       -4.63176
H          1.08667       -0.12910       -5.40946
C          0.66211       -0.14914       -3.31571
H          1.45801        0.53017       -3.05717
Pd        -1.44116       -1.33259        0.68213
Cl        -3.18476       -2.28480        1.71663
Cl        -0.46873       -0.46634        2.50841
C         -3.86131       -4.23649       -1.12958
C         -4.03776       -1.70554       -1.53150
H         -0.41216       -4.32562       -0.46508
H         -1.73565       -4.27169        0.69599
H         -1.52131       -5.69618       -0.31800
H         -4.04736       -4.33200       -0.05079
H         -4.15709       -5.20206       -1.56758
H         -4.33914       -1.23884       -0.58429
C         -4.72325       -3.07629       -1.70215
C         -4.26030       -0.76071       -2.69530
H         -2.06067       -4.29739       -2.35914
H         -4.90207       -3.25104       -2.77182
H         -5.72054       -3.06444       -1.23728
H         -5.30542       -0.44994       -2.76363
H         -3.64310        0.13537       -2.61006
H         -4.00032       -1.24010       -3.64005
C         -1.23499        4.05832        0.27429
C         -2.15297        3.10215       -0.23276
C         -1.67966        1.83418       -0.53099
C         -0.38481        1.48136       -0.24957
C          0.46053        2.35708        0.38087
C          0.05789        3.64547        0.68584
O         -1.58515        5.43359        0.32063
C         -3.64050        3.41346       -0.45913
H         -2.32269        1.09580       -0.97751
H          1.44677        2.01820        0.64134
C          1.02644        4.57802        1.42902
C          4.37564       -0.98753        0.86587
C          4.14465        0.03967       -0.08441
C          2.84493        0.25984       -0.50938
C          1.81438       -0.53763       -0.08195
C          2.05415       -1.60571        0.74254
C          3.32871       -1.88025        1.20871
O          5.63987       -1.09637        1.50385
C          5.27045        0.93344       -0.62880
H          2.61818        1.07855       -1.16971
H          1.22002       -2.21530        1.04329
C          3.54105       -3.10209        2.11556
C         -3.86323        3.76742       -1.93689
C         -4.50260        2.18364       -0.09527
C         -4.12115        4.56931        0.43745
C          1.90527        5.31517        0.40758
C          0.26151        5.59359        2.29717
C          1.93750        3.76826        2.37966
C         -1.29366        6.13356       -0.88216
H         -4.91259        3.98635       -2.13261
H         -3.27711        4.63882       -2.22259
H         -3.56476        2.94108       -2.58154
H         -5.56401        2.42571       -0.14237
H         -4.33306        1.35434       -0.77763
H         -4.28036        1.84170        0.91527
H         -3.91440        4.35310        1.48505
H         -3.62250        5.50161        0.18537
H         -5.19347        4.73011        0.32893
H          2.46274        4.60654       -0.20460
H          1.30172        5.92744       -0.25902
H          2.62153        5.96708        0.90702
H          0.94818        6.20956        2.87725
H         -0.34263        6.26025        1.68644
H         -0.40381        5.08069        2.99089
H          2.62913        3.13046        1.83216
H          2.53829        4.43293        2.99997
H          1.34311        3.13845        3.04108
H         -2.22036        6.45879       -1.35435
H         -0.69456        7.01502       -0.65318
H         -0.74481        5.49080       -1.57161
C          5.75304       -0.32724        2.69479
C          6.60628        0.17035       -0.68803
C          4.95196        1.39310       -2.06985
C          5.41012        2.17757        0.26159
C          4.95504       -3.68515        1.94193
C          3.31134       -2.69099        3.57790
C          2.54263       -4.22715        1.75778
H          6.94373       -0.11736        0.30446
H          6.50347       -0.73725       -1.28188
H          7.38806        0.78273       -1.13671
H          5.80230        1.91750       -2.50526
H          4.72312        0.53933       -2.70718
H          4.10642        2.07880       -2.09754
H          4.48539        2.75348        0.26563
H          5.63467        1.90432        1.28985
H          6.20864        2.82663       -0.09690
H          5.08247       -4.58835        2.53812
H          5.14005       -3.93825        0.89854
H          5.71791       -2.97591        2.25301
H          3.43802       -3.54120        4.24753
H          4.00920       -1.91512        3.88342
H          2.30280       -2.30086        3.71349
H          2.58299       -4.45743        0.69345
H          1.51929       -3.95498        2.01199
H          2.77520       -5.13943        2.30659
H          4.82238        0.20615        2.89291
H          5.98100       -0.98410        3.53407
H          6.56790        0.38917        2.59201
