87
-129.18278127
P         -1.54499       -0.25022       -0.42327
P          1.72873        0.27811        0.25298
C         -1.08673        1.01263       -1.61481
C          1.51337       -0.79772       -1.18851
C          0.01339        0.78338       -2.43109
C          0.37763        1.76581       -3.37324
C         -0.38369        2.91955       -3.46887
C         -1.47696        3.12351       -2.65206
C         -1.82654        2.16442       -1.72184
C          2.12225       -2.02367       -1.05347
C          2.00337       -2.97806       -2.04524
C          1.25644       -2.70102       -3.16892
C          0.61680       -1.48256       -3.31858
C          0.75104       -0.50207       -2.31668
Cl         0.98988       -0.34325        3.34074
Cl        -1.69957       -1.86727        2.37627
H         -2.05405        4.02975       -2.73591
H         -2.68106        2.31074       -1.08236
H          2.68801       -2.23557       -0.15825
H          2.48436       -3.93610       -1.93518
H         -0.10533        3.66851       -4.19070
H          1.15010       -3.44452       -3.94064
C         -2.51871       -4.10824       -2.61569
C         -1.69799       -4.15590       -1.49710
C         -1.43200       -2.97268       -0.81944
C         -1.94825       -1.77992       -1.26867
C         -2.75624       -1.73926       -2.38065
C         -3.04708       -2.91038       -3.05562
H         -2.74238       -5.02126       -3.14065
C         -1.14021       -5.44536       -1.00717
H         -0.81863       -2.98917        0.06527
H         -3.14692       -0.79206       -2.71835
H         -3.68048       -2.88641       -3.92717
C         -5.15923        1.11110        1.99675
C         -5.24073       -0.02264        1.21331
C         -4.14591       -0.42918        0.47469
C         -2.98199        0.30200        0.51837
C         -2.89862        1.43093        1.29976
C         -3.98556        1.84984        2.05705
H         -6.01063        1.42964        2.57373
H         -6.15434       -0.59336        1.18121
H         -4.19183       -1.32004       -0.13003
H         -1.98320        1.99569        1.32130
C         -3.89222        3.07548        2.89593
C          6.10064       -0.07391        1.48627
C          5.75942        0.13261        0.16421
C          4.42838        0.23128       -0.19764
C          3.44989        0.12357        0.76386
C          3.79103       -0.08133        2.07909
C          5.12086       -0.19173        2.46186
H          7.13635       -0.14490        1.77201
H          6.52890        0.21837       -0.58543
H          4.14686        0.38599       -1.22745
H          3.01384       -0.16151        2.81736
C          5.48396       -0.39030        3.89161
C          0.83863        4.71324       -0.20451
C          1.70980        4.09773       -1.08128
C          1.98939        2.75118       -0.94328
C          1.38659        2.03103        0.06052
C          0.54863        2.65011        0.95977
C          0.25683        4.00321        0.83640
H          0.60924        5.75919       -0.31695
H          2.16439        4.66307       -1.87821
H          2.66343        2.25445       -1.62204
H          0.15241        2.08735        1.78786
C         -0.67783        4.67232        1.78078
Pd        -0.13507       -0.57518        1.41840
C          1.56143        1.59223       -4.25939
C         -0.20881       -1.24585       -4.53584
H          1.25258        1.38527       -5.28476
H          2.17471        2.49447       -4.26996
H          2.19360        0.76892       -3.92465
H          0.42238       -1.01925       -5.39590
H         -0.80302       -2.12770       -4.77942
H         -0.90065       -0.41482       -4.39536
H         -1.78682       -5.88181       -0.24473
H         -1.04033       -6.16676       -1.81938
H         -0.15161       -5.30189       -0.56836
H         -2.95220        3.09758        3.44893
H         -3.94493        3.97335        2.27872
H         -4.70365        3.12085        3.62356
H          6.40285       -0.97039        3.98784
H          5.63620        0.56855        4.38897
H          4.69719       -0.92481        4.42599
H         -1.67912        4.73560        1.35270
H         -0.74499        4.12590        2.72248
H         -0.34496        5.68562        2.00989
