111
-148.55639025
P         -1.64816       -2.75564        0.01134
P         -0.48025        0.13820       -0.53933
C         -1.64860       -2.08246       -1.67577
C         -1.20614       -0.79551       -1.90084
C         -0.50010       -4.19747        0.15566
C          0.67086       -3.86147        1.05476
C         -2.06775       -2.85937       -2.73670
H         -2.37732       -3.87662       -2.56090
C         -2.06636       -2.33501       -4.01783
H         -2.39769       -2.94011       -4.84590
C         -1.63594       -1.04040       -4.23753
H         -1.63035       -0.63444       -5.23569
C         -1.19421       -0.27104       -3.17605
H         -0.82352        0.72978       -3.33316
Pd        -1.28642       -0.91301        1.35109
Cl        -1.85361       -2.19411        3.10119
Cl        -0.84381        0.97884        2.48186
C         -1.40765       -5.32197        0.69405
C         -3.24605       -3.55816        0.49113
H          0.32303       -3.57285        2.04866
H          1.34275       -4.71490        1.17214
H          1.25187       -3.02639        0.65858
H         -1.26665       -5.39593        1.78111
H         -1.09149       -6.29566        0.29030
H         -3.41215       -3.28278        1.54107
C         -2.91020       -5.05689        0.38952
C         -4.41065       -3.10056       -0.36129
H         -0.16344       -4.42397       -0.86449
H         -3.14919       -5.40712       -0.62403
H         -3.55691       -5.63999        1.06297
H         -5.34608       -3.56302       -0.03821
H         -4.53416       -2.01623       -0.31255
H         -4.26092       -3.36554       -1.40823
C         -0.89165        4.66613       -0.75474
C          0.39755        4.07783       -0.70128
C          0.48442        2.69769       -0.63570
C         -0.63759        1.91282       -0.68885
C         -1.87911        2.47146       -0.84254
C         -2.03737        3.84605       -0.92133
O         -1.03766        6.07070       -0.60266
C          1.69024        4.90808       -0.66677
H          1.43858        2.21391       -0.52307
H         -2.73020        1.81347       -0.88671
C         -3.44311        4.42450       -1.14738
C          3.73324       -1.43314        0.17337
C          3.16942       -0.48974        1.07310
C          1.88905       -0.03030        0.81945
C          1.21501       -0.39766       -0.31449
C          1.80070       -1.21378       -1.24604
C          3.07640       -1.71699       -1.05374
O          4.89786       -2.15468        0.54170
C          3.88428        0.04798        2.32318
H          1.37623        0.58799        1.53666
H          1.23669       -1.48033       -2.12315
C          3.68950       -2.56348       -2.18121
C          1.53263        6.21568       -1.46365
C          2.05544        5.21651        0.79328
C          2.85834        4.12681       -1.31119
C         -3.38090        5.75109       -1.92631
C         -4.30360        3.45233       -1.98628
C         -4.12813        4.63876        0.21087
C         -1.20543        6.49164        0.74541
H          2.46842        6.77341       -1.49055
H          1.23312        6.00568       -2.48989
H          0.77795        6.86153       -1.02203
H          1.27311        5.79153        1.28258
H          2.19096        4.29511        1.35892
H          2.98104        5.78853        0.85226
H          3.14524        3.26277       -0.71385
H          2.58931        3.78053       -2.30875
H          3.74173        4.75829       -1.40314
H         -4.38104        6.12592       -2.14242
H         -2.85752        6.51898       -1.36232
H         -2.85730        5.61635       -2.87217
H         -5.25388        3.91207       -2.25692
H         -3.79060        3.17715       -2.90749
H         -4.53514        2.54114       -1.43688
H         -3.56884        5.33691        0.82889
H         -5.13519        5.03470        0.08251
H         -4.20143        3.69893        0.75756
H         -0.40538        7.18045        1.01600
H         -2.15508        7.01609        0.84969
H         -1.18842        5.63196        1.41662
C          4.60517       -3.34386        1.25754
C          3.25192       -0.57438        3.57953
C          5.39433       -0.24408        2.30565
C          3.72081        1.58318        2.38384
C          5.20820       -2.74664       -2.01643
C          3.00287       -3.93918       -2.21593
C          3.46577       -1.85475       -3.53561
H          3.36310       -1.65687        3.58189
H          3.72063       -0.18713        4.48373
H          2.18686       -0.35039        3.63176
H          5.89571        0.22874        3.14980
H          5.58983       -1.31214        2.36337
H          5.84723        0.12935        1.38787
H          2.67900        1.87444        2.50627
H          4.27507        2.00018        3.22421
H          4.09575        2.04584        1.47143
H          5.63657       -3.26560       -2.87360
H          5.70328       -1.78089       -1.92110
H          5.44225       -3.32979       -1.12914
H          3.14096       -4.47289       -1.27771
H          1.93129       -3.83477       -2.38343
H          3.40855       -4.55686       -3.01670
H          2.40901       -1.78849       -3.78898
H          3.95887       -2.39567       -4.34291
H          3.87116       -0.84360       -3.51171
H          4.08243       -4.04967        0.61458
H          5.53618       -3.79467        1.60171
H          3.97415       -3.11904        2.11581
