58
-89.86782658
P          1.78860        0.02515        0.60711
C          1.57418        1.80386        0.44298
C          1.24402        2.31191       -0.79347
C          1.05046        3.67192       -0.95209
C          1.19520        4.51630        0.13037
C          1.54390        4.00550        1.36493
C          1.73916        2.64496        1.51976
H          2.03317        2.24125        2.47479
H          1.14145        1.63972       -1.63072
C          3.39391       -0.48208       -0.01484
C          3.76377       -1.80538        0.05927
C          4.99380       -2.20361       -0.43361
C          5.84326       -1.27283       -0.99857
C          5.46619        0.05347       -1.07384
C          4.23562        0.44817       -0.58084
H          3.92474        1.47862       -0.63905
H          3.08425       -2.52416        0.48924
C          1.63267       -0.54050        2.34869
C          0.36740       -0.07618        3.05401
C         -0.88740       -0.83681        2.65749
P         -1.53560       -0.44284        0.98432
C         -1.91481        1.30097        0.76257
C         -1.97264        2.17714        1.82231
C         -2.24402        3.51378        1.59238
C         -2.46469        3.96240        0.30497
C         -2.42241        3.07733       -0.75368
C         -2.14821        1.74271       -0.52007
H         -2.11314        1.03255       -1.33140
H         -1.82055        1.81638        2.82599
C         -2.98901       -1.45652        0.70408
C         -4.22704       -0.86812        0.58258
C         -5.34253       -1.65439        0.35736
C         -5.20792       -3.02497        0.25405
C         -3.96296       -3.61042        0.37523
C         -2.84906       -2.82145        0.60162
H         -1.86849       -3.26277        0.68781
H         -4.31470        0.20364        0.65919
Pd         0.03549       -0.75034       -0.69108
Cl         1.55750       -1.37527       -2.21870
Cl        -1.69964       -1.30170       -2.01354
H         -0.71125       -1.91346        2.69161
H         -1.71051       -0.63230        3.34669
H          0.51007       -0.16473        4.14240
H          0.21941        0.99457        2.87079
H          1.69885       -1.62979        2.35151
H          2.52741       -0.17047        2.85565
H          0.78240        4.06920       -1.91722
H          1.66468        4.66599        2.20781
H          5.28488       -3.23986       -0.38146
H          6.12659        0.77938       -1.51902
H         -2.28293        4.20466        2.41848
H         -2.59774        3.42422       -1.75867
H         -6.31336       -1.19711        0.25923
H         -3.85713       -4.67933        0.28878
H          1.03910        5.57599        0.01075
H          6.80033       -1.58286       -1.38537
H         -2.67257        5.00478        0.12649
H         -6.07568       -3.63869        0.07508
