45
-71.82056945
C          0.34401        1.46225        3.18126
P         -0.18120        0.75217        1.58622
P         -0.12251        0.76935       -1.55832
C          0.49998        1.51572       -3.10081
Cl         3.02659        0.32108        1.68029
H          0.74730        2.45892        3.02677
H         -0.30444        1.60276       -3.82550
Cl         2.97273       -0.13587       -1.56879
C         -1.32839        1.81791        0.68697
C         -1.30190        1.82589       -0.69109
C         -2.20050        2.59785       -1.39865
C         -3.12503        3.37134       -0.71926
C         -3.15181        3.36332        0.66188
C         -2.25415        2.58189        1.36773
H         -2.17919        2.58553       -2.47629
H         -3.82703        3.97670       -1.26876
H         -3.87471        3.96252        1.19065
H         -2.27492        2.55736        2.44514
Pd         1.49725        0.37326        0.04286
H          1.28491        0.89194       -3.51893
H          1.11247        0.83627        3.62577
H          0.90489        2.50279       -2.89669
C         -1.79501       -3.42632       -2.04036
C         -2.65818       -2.35972       -1.88061
C         -2.15396       -1.07786       -1.75365
C         -0.79417       -0.87483       -1.79269
C          0.06969       -1.93319       -1.95286
C         -0.43048       -3.21592       -2.07727
H         -2.18728       -4.42586       -2.13305
H         -3.72234       -2.52572       -1.84594
H         -2.81238       -0.23636       -1.60994
H          1.13175       -1.74503       -1.96174
H          0.24352       -4.04813       -2.19668
C         -1.80509       -3.48060        1.85324
C         -0.45565       -3.24451        2.02966
C          0.02921       -1.95063        1.97215
C         -0.83707       -0.90752        1.73932
C         -2.18149       -1.13594        1.56051
C         -2.66967       -2.42877        1.62060
H         -2.18404       -4.48872        1.89363
H          0.21959       -4.06563        2.20550
H          1.08162       -1.74393        2.08853
H         -2.83919       -0.30535        1.36079
H         -3.72134       -2.61459        1.47681
H         -0.50057        1.52014        3.86185
