58
-89.86882944
P          1.54588        0.13723        0.75109
C          1.53180        1.93121        0.62386
C          1.47225        2.49520       -0.62974
C          1.45242        3.86992       -0.77091
C          1.50098        4.67380        0.35039
C          1.57669        4.10592        1.60697
C          1.59535        2.72953        1.74364
H          1.66066        2.27854        2.72013
H          1.45162        1.84943       -1.49267
C          3.15710       -0.51035        0.28889
C          4.24785        0.32856        0.31925
C          5.49614       -0.15171       -0.03404
C          5.64194       -1.47077       -0.41557
C          4.54475       -2.30881       -0.44452
C          3.29800       -1.82585       -0.08974
H          2.43260       -2.46791       -0.12128
H          4.11659        1.35734        0.61450
C          1.17701       -0.43891        2.46220
C          0.48782       -1.79574        2.45685
C         -1.02069       -1.71866        2.28310
P         -1.57649       -0.79595        0.78464
C         -1.74314        0.97889        1.04913
C         -1.69452        1.54318        2.30306
C         -1.79844        2.91474        2.44395
C         -1.95573        3.71382        1.32914
C         -2.01569        3.14430        0.07346
C         -1.91080        1.77235       -0.06339
H         -1.95287        1.31018       -1.03752
H         -1.58817        0.91662        3.17232
C         -3.13895       -1.49309        0.23664
C         -3.19476       -2.82013       -0.12278
C         -4.39142       -3.36653       -0.55166
C         -5.52382       -2.57879       -0.61613
C         -5.46303       -1.24747       -0.25444
C         -4.26502       -0.70416        0.17285
H         -4.20230        0.33420        0.45482
H         -2.29895       -3.41966       -0.08073
Pd         0.07079       -0.67140       -0.85738
Cl         1.62647       -0.25178       -2.42082
Cl        -1.49453       -1.35196       -2.31125
H         -1.45461       -2.71919        2.21415
H         -1.48992       -1.24312        3.14555
H          0.92012       -2.41116        1.65598
H          0.71628       -2.33630        3.38883
H          2.13866       -0.47195        2.98087
H          0.56675        0.30588        2.97273
H          1.39971        4.31057       -1.75283
H          1.61801        4.73405        2.48162
H          6.35133        0.50366       -0.01414
H          4.65754       -3.33676       -0.74761
H         -1.75414        3.35985        3.42441
H         -2.13630        3.76569       -0.79854
H         -4.43713       -4.40395       -0.83959
H         -6.34572       -0.63157       -0.30749
H          1.48273        5.74625        0.24466
H          6.61314       -1.84610       -0.69420
H         -2.02987        4.78342        1.43916
H         -6.45585       -3.00299       -0.95240
