64
-97.22141472
Cl        -1.31402       -0.16072       -2.84039
Cl         1.87472       -0.83369       -2.89009
P          1.92916       -0.72737        0.30490
C          1.98612       -2.49000        0.88158
C          3.75523       -0.45316        0.09064
P         -1.25978       -0.30066        0.41080
C          1.22642        0.42841        1.53760
C         -0.21048        0.60597        1.61064
C         -0.48400        1.62157        2.61668
C          0.79258        2.08670        3.13266
C          1.85308        1.32818        2.49157
H         -1.46999        1.95636        2.94391
H          0.92920        2.84028        3.91181
Pd         0.26803       -0.67270       -1.34024
H          2.92568        1.43301        2.66500
C         -5.12764        1.78654       -0.80727
C         -4.85081        0.50381       -1.23624
C         -3.67230       -0.11145       -0.85272
C         -2.77567        0.55645       -0.05014
C         -3.05580        1.83130        0.38553
C         -4.23131        2.45142        0.00546
H         -6.04390        2.26879       -1.10673
H         -5.54832       -0.01712       -1.87136
H         -3.44102       -1.11162       -1.18427
H         -2.35256        2.34089        1.01938
H         -4.44615        3.45223        0.34265
C         -2.44418       -4.36542        2.05551
C         -2.05459       -4.24966        0.73533
C         -1.69861       -3.01326        0.22783
C         -1.73026       -1.90709        1.04545
C         -2.12587       -2.01343        2.35881
C         -2.48314       -3.24928        2.86841
H         -2.72151       -5.32874        2.45154
H         -2.02877       -5.12004        0.10042
H         -1.40166       -2.90551       -0.80307
H         -2.14625       -1.13087        2.97891
H         -2.78997       -3.33955        3.89748
C          4.14444        0.49551       -1.02156
H          4.10414       -0.06747        1.05787
C          4.27419       -1.88687       -0.11044
H          5.34905       -1.94231        0.12077
C          3.46587       -2.90137        0.73980
H          4.18652       -2.14471       -1.17526
C          1.46758       -2.59722        2.29939
H          1.35430       -3.05684        0.18494
H          3.91053       -2.96839        1.74178
H          3.54434       -3.91457        0.31886
H          2.07477       -1.99371        2.97710
H          0.44137       -2.23583        2.37777
H          1.49106       -3.62898        2.65781
H          5.22879        0.53552       -1.14330
H          3.72206        0.17540       -1.97351
H          3.79932        1.51013       -0.82469
Fe         0.71095        2.35250        1.11215
C          1.01594        4.31202        0.54929
C         -0.30286        3.86265        0.13744
C         -0.13508        2.71401       -0.73287
C          1.28513        2.44531       -0.84087
C          2.00277        3.44493       -0.07040
H          1.22959        5.17456        1.18458
H         -1.25009        4.34197        0.39417
H         -0.92252        2.16014       -1.24796
H          1.72201        1.67455       -1.47905
H          3.08674        3.54136        0.02132
