87
-129.18154850
P         -1.52038       -0.24427       -0.42132
P          1.70429        0.28431        0.23349
C         -1.08703        1.01770       -1.62326
C          1.50205       -0.79088       -1.20942
C          0.00268        0.78806       -2.45299
C          0.35347        1.76875       -3.40221
C         -0.41196        2.92024       -3.49203
C         -1.49628        3.12349       -2.66322
C         -1.83186        2.16663       -1.72567
C          2.11564       -2.01445       -1.07462
C          2.00569       -2.96665       -2.06945
C          1.26141       -2.69053       -3.19513
C          0.61656       -1.47470       -3.34436
C          0.74445       -0.49511       -2.34058
Cl         0.93071       -0.28094        3.39504
Cl        -1.61041       -1.98176        2.34395
H         -2.07681        4.02790       -2.74302
H         -2.67968        2.31258       -1.07743
H          2.67821       -2.22634       -0.17743
H          2.49079       -3.92266       -1.95979
H         -0.14371        3.66822       -4.21869
H          1.16059       -3.43310       -3.96848
C         -2.49359       -4.10226       -2.61456
C         -1.67625       -4.15187       -1.49364
C         -1.39889       -2.96742       -0.82271
C         -1.92591       -1.77605       -1.26273
C         -2.74526       -1.73618       -2.36644
C         -3.03225       -2.90580       -3.04565
H         -2.70481       -5.01240       -3.14960
C         -1.06815       -5.43292       -1.04312
H         -0.76683       -2.98120        0.04875
H         -3.14387       -0.78990       -2.69743
H         -3.66820       -2.88119       -3.91532
C         -5.12614        1.09125        2.02798
C         -5.19458       -0.06084        1.27050
C         -4.10284       -0.45920        0.52296
C         -2.95467        0.29776        0.53227
C         -2.88392        1.44442        1.28900
C         -3.96835        1.85668        2.05328
H         -5.97530        1.40342        2.61168
H         -6.09562       -0.65206        1.26546
H         -4.13858       -1.36370       -0.06191
H         -1.98027        2.02830        1.28608
C         -3.88726        3.10171        2.86447
C          6.05181       -0.12726        1.53186
C          5.73472        0.09728        0.20672
C          4.41131        0.22195       -0.17459
C          3.41627        0.11674        0.76997
C          3.73333       -0.10512        2.08841
C          5.05592       -0.22426        2.49320
H          7.08095       -0.23088        1.83108
H          6.51693        0.17287       -0.53075
H          4.14827        0.38946       -1.20726
H          2.94249       -0.19087        2.81163
C          5.39268       -0.49192        3.91814
C          0.84667        4.72421       -0.24015
C          1.70708        4.09790       -1.11996
C          1.97809        2.75007       -0.97705
C          1.37739        2.03958        0.03482
C          0.55071        2.66945        0.93709
C          0.26743        4.02385        0.80867
H          0.62376        5.77114       -0.35649
H          2.15957        4.65580       -1.92330
H          2.64280        2.24462       -1.65860
H          0.15666        2.11419        1.77130
C         -0.65564        4.70456        1.75625
Pd        -0.13704       -0.54762        1.44597
C          1.52926        1.59829       -4.29956
C         -0.21029       -1.24149       -4.56145
H          2.16050        0.76901       -3.97808
H          1.21115        1.40293       -5.32440
H          2.14649        2.49788       -4.30625
H          0.41946       -1.00969       -5.42118
H         -0.79878       -2.12682       -4.80633
H         -0.90768       -0.41532       -4.41969
H         -0.94635       -5.44847        0.04094
H         -1.69145       -6.28459       -1.31907
H         -0.08490       -5.57355       -1.49430
H         -3.92344        3.98464        2.22488
H         -4.71324        3.16801        3.57389
H         -2.95834        3.13350        3.43549
H          6.32167        0.00430        4.20250
H          4.60675       -0.13022        4.58277
H          5.51382       -1.56186        4.09279
H         -0.30460        5.71045        1.99084
H         -1.65542        4.78811        1.32812
H         -0.73350        4.15440        2.69496
