75
-122.81257250
P          1.89531       -0.53111        0.16774
C          1.61163       -1.58697       -1.25709
C          1.88621       -1.13294       -2.52673
C          1.78285       -1.99640       -3.60171
C          1.41082       -3.31008       -3.39473
C          1.13839       -3.76127       -2.11835
C          1.24340       -2.89567       -1.04427
H          1.05570       -3.23715       -0.03818
H          0.84546       -4.78572       -1.95782
H          1.32593       -3.98310       -4.23221
H          1.99113       -1.64340       -4.59825
H          2.18314       -0.10668       -2.66976
C          3.33295       -1.23393        1.00673
C          4.30575       -1.81293        0.22224
C          5.42732       -2.37152        0.80857
C          5.57010       -2.34569        2.18129
C          4.59792       -1.75824        2.96541
C          3.48175       -1.19926        2.37355
H          2.73582       -0.71017        2.97412
H          4.71199       -1.72806        4.03662
H          6.44275       -2.78065        2.64064
H          6.18646       -2.82690        0.19407
H          4.18119       -1.82921       -0.84898
C          2.27109        1.15193       -0.33658
C          3.43163        1.79835        0.01798
C          3.61509        3.13817       -0.29613
C          2.58369        3.82176       -0.93962
C          1.41070        3.18777       -1.28575
C          1.25627        1.82141       -1.00306
O          0.08099        1.13310       -1.34384
C         -1.12346        1.80031       -1.06906
C         -1.27383        3.17109       -1.33157
C         -2.46078        3.79266       -1.01358
C         -3.50787        3.09099       -0.41739
C         -3.34518        1.73616       -0.16422
C         -2.17177        1.09839       -0.49256
P         -1.79388       -0.62620       -0.11645
C         -3.09548       -1.38447        0.87210
C         -2.79769       -2.03484        2.04748
C         -3.80736       -2.63706        2.77544
C         -5.10802       -2.59491        2.31443
C         -5.39999       -1.95896        1.12439
C         -4.38783       -1.35691        0.39904
H         -4.59706       -0.88150       -0.54642
H         -6.41326       -1.93447        0.75837
H         -5.89570       -3.06307        2.88194
H         -3.57804       -3.13768        3.70176
H         -1.77769       -2.06890        2.39458
C         -1.74857       -1.54769       -1.66619
C         -1.40657       -0.92315       -2.84361
C         -1.46527       -1.61666       -4.03779
C         -1.86124       -2.93915       -4.04490
C         -2.19507       -3.56754       -2.86165
C         -2.14087       -2.86727       -1.66996
H         -2.41542       -3.34139       -0.74124
H         -2.50138       -4.60064       -2.86577
H         -1.90308       -3.48342       -4.97419
H         -1.19380       -1.12742       -4.95871
H         -1.07618        0.10127       -2.82036
Pd        -0.06847       -0.01369        1.41874
Cl        -1.80232        0.83286        2.58893
Cl         1.41014        0.95953        2.80521
H         -4.13193        1.18803        0.32192
C         -4.78453        3.77447       -0.07831
H         -5.23748        3.33839        0.81306
H         -5.49978        3.68786       -0.89719
H         -4.62323        4.83515        0.11823
H         -2.57296        4.84221       -1.22084
S          0.07662        4.05951       -2.06456
H          2.69555        4.86890       -1.15903
C          4.85706        3.84691        0.11145
H          4.19034        1.26437        0.56356
H          4.75623        4.25403        1.11828
H          5.71417        3.17226        0.10518
H          5.07977        4.67250       -0.56570
