87
-129.18717259
P         -1.54395       -0.28270       -0.35683
P          1.67651        0.37063        0.05179
C         -1.20851        0.98041       -1.59001
C          1.52788       -0.69718       -1.39965
C         -0.16185        0.80549       -2.48695
C          0.09823        1.81787       -3.43225
C         -0.70418        2.94671       -3.45013
C         -1.74188        3.09733       -2.55474
C         -1.99038        2.10896       -1.62315
C          2.26624       -1.85657       -1.37324
C          2.15222       -2.78508       -2.38881
C          1.27811       -2.55317       -3.42777
C          0.51608       -1.39870       -3.47382
C          0.65129       -0.43922       -2.45153
Cl         1.13545        0.13608        3.27611
Cl        -1.50723       -1.58397        2.63046
H         -2.35315        3.98458       -2.57760
H         -2.80057        2.21732       -0.92156
H          2.93443       -2.04161       -0.54858
H          2.73427       -3.69167       -2.36139
H         -0.50228        3.71816       -4.17375
H          1.17254       -3.28033       -4.21500
C         -2.14811       -4.31554       -2.35371
C         -1.26754       -4.21401       -1.28542
C         -1.10703       -2.97649       -0.67425
C         -1.81014       -1.88195       -1.12055
C         -2.68803       -1.99177       -2.17313
C         -2.86003       -3.21611       -2.79207
H         -2.26957       -5.26676       -2.84328
C         -0.47079       -5.38720       -0.83523
H         -0.42042       -2.87061        0.14863
H         -3.22078       -1.11765       -2.51366
H         -3.54155       -3.30902       -3.62169
C         -5.14878        0.92287        2.15811
C         -5.20623       -0.21683        1.38039
C         -4.11889       -0.58100        0.60897
C         -2.98437        0.19571        0.61968
C         -2.92405        1.32927        1.39719
C         -4.00930        1.71540        2.17337
H         -5.99143        1.20332        2.76682
H         -6.09510       -0.82621        1.37964
H         -4.14571       -1.47469        0.00748
H         -2.02601        1.92292        1.40562
C         -3.92389        2.92800        3.03181
C          5.59290       -0.45880        2.22412
C          5.45059        0.68998        1.47133
C          4.26047        0.94112        0.81472
C          3.22199        0.04493        0.91659
C          3.36290       -1.10105        1.66508
C          4.55383       -1.37322        2.32715
H          6.51538       -0.65190        2.74474
H          6.26433        1.39288        1.39909
H          4.13381        1.83692        0.22916
H          2.53483       -1.78464        1.75596
C          4.68480       -2.59445        3.16738
C          1.08506        4.81286       -0.69696
C          1.95612        4.09724       -1.49523
C          2.15265        2.74809       -1.26593
C          1.47534        2.12941       -0.24191
C          0.63132        2.84622        0.57488
C          0.41747        4.20115        0.35521
H          0.91682        5.85939       -0.88587
H          2.47224        4.58617       -2.30511
H          2.81371        2.16934       -1.89134
H          0.14968        2.35532        1.40277
C         -0.54395        4.96076        1.19940
Pd        -0.04880       -0.36433        1.43719
C          1.21885        1.70477       -4.40659
C         -0.43555       -1.20522       -4.60344
H          0.84238        1.50419       -5.41039
H          1.79586        2.62987       -4.44408
H          1.90459        0.90096       -4.13656
H         -0.98424       -2.12513       -4.81029
H         -1.16968       -0.43038       -4.38034
H          0.09327       -0.91870       -5.51322
H         -1.01778       -6.31818       -0.99046
H          0.46838       -5.45084       -1.38662
H         -0.23286       -5.31563        0.22709
H         -3.37051        2.71422        3.94729
H         -3.41328        3.73980        2.51175
H         -4.91526        3.28596        3.31292
H          4.16002       -3.43798        2.71643
H          5.73024       -2.88086        3.29007
H          4.26199       -2.42696        4.15893
H         -1.54640        4.92416        0.77037
H         -0.59400        4.54665        2.20752
H         -0.25135        6.00813        1.28520
