72
-108.40227309
Cl         1.79193       -0.72606        2.65290
Cl        -1.01292        0.72356        2.74670
P         -1.17294        1.12303       -0.29056
P          2.30336       -0.10702       -0.33209
C          3.27304        1.50439       -0.08181
C          3.61357        1.65520        1.40148
C          4.54566        1.47544       -0.92048
C          3.38327       -1.65403       -0.08189
C          4.19756       -1.93968       -1.34980
C          1.49548       -0.38265       -2.01795
C          1.54433        0.79954       -2.96305
C         -1.11082       -0.22970       -1.50842
C          0.08580       -0.94571       -1.95747
C         -0.38750       -2.06771       -2.76955
C         -1.83386       -1.99455       -2.86470
C         -2.28040       -0.82740       -2.12772
C          2.40490        2.69028       -0.48581
H          2.71501        1.62789        2.01811
H          4.28366        0.87502        1.75256
H          5.06888        2.43094       -0.85659
H          4.32785        1.28773       -1.97102
C          4.33954       -1.51728        1.09906
H          3.58055       -2.34506       -2.15091
H          4.96886       -2.68481       -1.14774
H          2.11541       -1.17200       -2.45342
H          1.18684        0.52026       -3.95630
H          2.55162        1.19810       -3.07919
H          0.88876        1.59355       -2.61315
H          0.25223       -2.76790       -3.31042
H         -2.47220       -2.66645       -3.44351
Pd         0.48926        0.27567        1.12546
H         -3.31122       -0.50288       -1.97040
C          2.41434       -2.79954        0.17375
H          4.69366       -1.04489       -1.72188
H          5.12025       -0.78530        0.90081
H          3.81425       -1.23536        2.00917
H          4.83844       -2.46720        1.29639
H          1.91324       -2.67006        1.13209
H          1.65745       -2.85475       -0.61008
H          2.93938       -3.75637        0.20373
H          4.10944        2.60958        1.58618
H          5.23526        0.70699       -0.57517
H          2.20905        2.71256       -1.55465
H          1.45379        2.66724        0.04321
H          2.89647        3.63175       -0.23490
C         -2.86137        1.18344        0.36073
C         -3.32650        2.12839        1.24099
C         -4.66116        1.82071        1.50523
C         -4.95763        0.69915        0.77085
O         -3.86174        0.29758        0.06311
H         -2.75662        2.93966        1.66314
H         -5.32768        2.35656        2.16115
H         -5.91482        0.19306        0.74700
C         -0.78441        2.73813       -0.98706
C         -0.71489        3.88288       -0.23206
C         -0.39372        4.92644       -1.10132
C         -0.28126        4.37311       -2.35326
O         -0.51518        3.02862       -2.29670
H         -0.86295        3.95056        0.83378
H         -0.25967        5.96354       -0.84053
H         -0.04059        4.90989       -3.26251
Fe        -1.27971       -2.12475       -0.93209
C         -2.16084       -1.99138        0.93176
C         -0.85744       -2.61738        0.99817
C         -0.87673       -3.82281        0.19028
C         -2.18936       -3.91551       -0.42111
C         -2.97598       -2.78125        0.03113
H         -2.45889       -1.07661        1.44689
H         -0.04327       -2.27973        1.64196
H         -0.06174       -4.54098        0.07806
H         -2.53389       -4.71203       -1.08416
H         -4.01523       -2.57195       -0.23223
