171
-217.84637396
P         -1.61288        0.40170       -0.36386
P          1.64421       -0.33950       -0.24174
C         -0.83497        1.43575       -1.61409
C          1.01487       -1.23250       -1.66622
C          0.03626        0.89332       -2.55272
C          0.70908        1.76159       -3.43420
C          0.45706        3.12177       -3.37068
C         -0.43327        3.63717       -2.45315
C         -1.07107        2.78862       -1.57026
C          1.26810       -2.57895       -1.75956
C          0.76100       -3.30880       -2.81685
C         -0.01599       -2.68273       -3.76848
C         -0.28296       -1.32585       -3.69241
C          0.25809       -0.57650       -2.62998
Cl         1.45420        0.20630        2.97781
Cl        -1.75009       -0.27245        2.77072
C         -1.11509       -0.68092       -4.74510
C          1.68555        1.24756       -4.43399
H         -0.62606        4.69699       -2.41888
H         -1.75959        3.18618       -0.84300
H          1.86804       -3.06086       -1.00458
H          0.96923       -4.36333       -2.89527
H          0.97104        3.78004       -4.05075
H         -0.42426       -3.25001       -4.58788
C         -3.61887       -3.36628       -1.84858
C         -2.70010       -3.46267       -0.81023
C         -2.06032       -2.29917       -0.40449
C         -2.35054       -1.09853       -1.00332
C         -3.26748       -1.01759       -2.02196
C         -3.92344       -2.15934       -2.46674
H         -4.12830       -4.25111       -2.18023
H         -1.33767       -2.32295        0.39249
H         -3.47624       -0.05272       -2.45221
C         -4.73433        2.68266        2.01403
C         -3.40303        3.07265        2.11196
C         -2.46508        2.38261        1.35530
C         -2.84648        1.33687        0.55262
C         -4.16264        0.95573        0.48078
C         -5.13735        1.62434        1.20760
H         -5.47345        3.21018        2.58532
H         -1.42288        2.64922        1.40711
H         -4.43290        0.11809       -0.13794
C          4.28784       -2.94535        2.37136
C          2.93436       -3.24953        2.27351
C          2.14870       -2.46308        1.44123
C          2.69522       -1.40612        0.75687
C          4.03059       -1.11366        0.87463
C          4.85848       -1.88247        1.68032
H          4.90980       -3.54306        3.00926
H          1.09382       -2.65952        1.34763
H          4.43021       -0.26536        0.34737
C          3.93975        3.41041       -1.28069
C          2.86214        3.50657       -0.40924
C          2.16477        2.34335       -0.11018
C          2.52456        1.15172       -0.68784
C          3.57788        1.07584       -1.56522
C          4.31529        2.21233       -1.87594
H          4.51735        4.29282       -1.48524
H          1.34051        2.35458        0.58147
H          3.82496        0.11866       -1.99240
Pd        -0.05035       -0.00115        1.32321
C         -3.43060       -5.86923       -0.42853
C         -2.36059       -4.79934       -0.13468
C         -2.28070       -4.61301        1.39449
C         -1.00563       -5.29092       -0.66676
H         -3.21855       -6.78817        0.11795
H         -4.41967       -5.52323       -0.12857
H         -3.45898       -6.12161       -1.48809
H         -2.10215       -5.56517        1.89382
H         -1.47208       -3.94111        1.67684
H         -3.21159       -4.19875        1.78097
H         -0.71250       -6.22721       -0.19223
H         -1.05280       -5.45661       -1.74278
H         -0.22666       -4.55402       -0.47712
C         -4.66509       -3.10881       -4.67447
C         -5.00746       -2.10996       -3.55279
C         -5.12914       -0.70384       -4.17238
C         -6.36148       -2.48392       -2.92223
H         -4.64237       -4.13258       -4.30349
H         -5.40401       -3.06366       -5.47435
H         -3.68924       -2.88837       -5.10520
H         -5.88527       -0.69143       -4.95725
H         -5.42226        0.03205       -3.42404
H         -4.18637       -0.38696       -4.61676
H         -6.33788       -3.49080       -2.50670
H         -6.61365       -1.79609       -2.11530
H         -7.16106       -2.44524       -3.66179
C         -4.07498        4.73211        3.92256
C         -2.94034        4.22912        3.00934
C         -2.46863        5.39274        2.12043
C         -1.77830        3.75192        3.90357
H         -4.45964        3.92595        4.54705
H         -3.71779        5.52206        4.58317
H         -4.89899        5.14215        3.33916
H         -1.65673        5.08029        1.46581
H         -3.28284        5.75154        1.49108
H         -2.11291        6.22771        2.72379
H         -2.07951        2.88838        4.49613
H         -0.90983        3.46361        3.31337
H         -1.46405        4.53935        4.58824
C         -7.53223        2.00528        1.98499
C         -6.59642        1.15875        1.10144
C         -6.69170       -0.31071        1.55423
C         -7.06128        1.27921       -0.36192
H         -7.50951        3.05382        1.68864
H         -8.56254        1.66047        1.89788
H         -7.24912        1.93555        3.03511
H         -7.72117       -0.66602        1.51337
H         -6.08997       -0.96118        0.92036
H         -6.33572       -0.42099        2.57830
H         -6.98189        2.30969       -0.70759
H         -6.45603        0.65844       -1.02133
H         -8.09943        0.96535       -0.46913
C          1.18092       -3.77527        3.98197
C          2.27413       -4.37797        3.07837
C          3.29087       -5.11809        3.96813
C          1.64335       -5.39267        2.10888
H          0.69997       -4.54712        4.58234
H          1.60711       -3.03518        4.65879
H          0.40840       -3.28004        3.39517
H          2.80330       -5.91247        4.53314
H          4.07750       -5.57550        3.36833
H          3.75165       -4.43906        4.68530
H          2.39722       -5.81027        1.44179
H          1.17696       -6.21500        2.65115
H          0.87770       -4.92209        1.49565
C          6.98871       -1.58163        0.39309
C          6.34439       -1.51238        1.79031
C          7.10402       -2.46954        2.72836
C          6.46798       -0.08089        2.34587
H          8.04916       -1.33444        0.43929
H          6.89268       -2.58304       -0.02599
H          6.51429       -0.88441       -0.29630
H          6.69416       -2.43690        3.73766
H          7.05285       -3.49626        2.36638
H          8.15675       -2.19422        2.79142
H          5.99321        0.64351        1.68497
H          5.98953       -0.00507        3.32206
H          7.51345        0.20578        2.45782
C          1.19112        4.76741        1.03060
C          2.50235        4.85616        0.22596
C          2.32004        5.91469       -0.87821
C          3.63611        5.28314        1.17433
H          0.37118        4.43227        0.39634
H          1.28741        4.07532        1.86678
H          0.92058        5.74056        1.44000
H          3.24251        6.07395       -1.43488
H          1.55198        5.60408       -1.58549
H          2.02001        6.87263       -0.45375
H          4.57729        5.39455        0.63683
H          3.40763        6.23537        1.65268
H          3.78386        4.53833        1.95619
C          6.80708        2.39732       -1.91101
C          5.55713        2.15830       -2.77692
C          5.46559        3.24628       -3.86431
C          5.69368        0.78953       -3.47268
H          6.88457        1.64191       -1.12924
H          7.71432        2.35522       -2.51343
H          6.76898        3.37347       -1.42838
H          5.44523        4.24496       -3.43044
H          6.32264        3.19695       -4.53582
H          4.56357        3.12252       -4.46223
H          5.83426       -0.01025       -2.74611
H          4.81001        0.56295       -4.06863
H          6.55541        0.77923       -4.13994
H         -0.51738       -0.45211       -5.62835
H          2.57944        1.87142       -4.45672
H         -1.55875        0.24901       -4.38674
H         -1.92907       -1.33692       -5.05447
H          1.25369        1.24495       -5.43569
H          2.00161        0.23047       -4.19853
