87
-129.18764582
P         -1.73416       -0.39269       -0.15227
P          1.53240        0.43758       -0.03492
C         -1.48730        0.98201       -1.29568
C          1.34523       -0.54213       -1.53216
C         -0.49903        0.96858       -2.27680
C         -0.31588        2.11686       -3.07172
C         -1.12839        3.21908       -2.86961
C         -2.10423        3.21287       -1.89716
C         -2.27647        2.09160       -1.11007
C          2.16718       -1.62865       -1.70708
C          2.03597       -2.42643       -2.82644
C          1.07199       -2.13011       -3.76630
C          0.22959       -1.04237       -3.60823
C          0.37076       -0.22238       -2.47126
Cl         1.11777        0.84101        3.14513
Cl        -1.44859       -1.08623        3.01383
H         -2.72541        4.08055       -1.74647
H         -3.03290        2.08345       -0.34305
H          2.91480       -1.85561       -0.96523
H          2.67909       -3.28079       -2.96002
H         -0.98458        4.09297       -3.48221
H          0.96008       -2.75394       -4.63686
C         -1.19512       -4.49614       -2.02655
C         -0.48183       -4.17024       -0.88097
C         -0.68375       -2.92071       -0.30891
C         -1.54531       -2.01750       -0.88767
C         -2.24746       -2.34676       -2.02308
C         -2.07449       -3.59434       -2.59349
H         -1.05509       -5.46568       -2.47325
C          0.46236       -5.13650       -0.25715
H         -0.16235       -2.65719        0.59516
H         -2.91431       -1.62271       -2.46418
H         -2.61967       -3.85891       -3.48463
C         -5.72178       -0.00362        2.01499
C         -5.54893       -0.98862        1.06286
C         -4.33952       -1.10643        0.40425
C         -3.31298       -0.24059        0.70124
C         -3.48339        0.74095        1.65060
C         -4.69396        0.87829        2.31873
H         -6.65955        0.08365        2.53678
H         -6.35380       -1.66870        0.83674
H         -4.18859       -1.87692       -0.33374
H         -2.66413        1.39771        1.89304
C         -4.85751        1.91735        3.37139
C          5.08199       -1.08530        2.37930
C          5.13579        0.16424        1.79366
C          4.06224        0.62713        1.05649
C          2.94500       -0.16106        0.91115
C          2.88856       -1.40564        1.49526
C          3.96101       -1.89068        2.23329
H          5.91302       -1.44394        2.96244
H          6.01109        0.78098        1.91569
H          4.08660        1.60367        0.60122
H          2.00216       -2.00764        1.38550
C          3.88032       -3.22313        2.89099
C          1.94354        4.86274       -0.96161
C          1.08934        4.45175        0.04272
C          0.96937        3.10698        0.33721
C          1.69850        2.18768       -0.37970
C          2.55774        2.59241       -1.37442
C          2.68826        3.94159       -1.68518
H          2.04239        5.91019       -1.19055
H          0.51878        5.17753        0.59860
H          0.31887        2.77051        1.12816
H          3.12321        1.85447       -1.91961
C          3.62663        4.39238       -2.74873
Pd        -0.14432       -0.04398        1.51103
C          0.72916        2.17213       -4.13172
C         -0.80689       -0.76859       -4.64208
H          1.23608        3.13789       -4.12747
H          1.48790        1.40253       -3.98638
H          0.28892        2.03057       -5.11942
H         -1.33569       -1.68330       -4.91363
H         -1.54944       -0.05415       -4.28515
H         -0.35488       -0.36208       -5.54761
H          1.35508       -4.62722        0.10942
H         -0.00550       -5.64560        0.58657
H          0.78428       -5.89422       -0.97286
H         -4.44323        1.57319        4.32004
H         -4.34339        2.83897        3.09464
H         -5.90941        2.15881        3.53020
H          3.38878       -3.14463        3.86167
H          3.31109       -3.92706        2.28199
H          4.87288       -3.64751        3.04835
H          4.55431        4.76624       -2.31325
H          3.87950        3.57537       -3.42609
H          3.18698        5.19335       -3.34493
