87
-129.18676141
P         -1.59498       -0.30484       -0.33844
P          1.70978        0.38356        0.07436
C         -1.23362        0.97001       -1.55328
C          1.53560       -0.69154       -1.36980
C         -0.17252        0.80806       -2.43616
C          0.09912        1.83153       -3.36581
C         -0.70202        2.96122       -3.37995
C         -1.75126        3.10109       -2.49649
C         -2.01372        2.10003       -1.58237
C          2.27484       -1.85057       -1.35383
C          2.14642       -2.78001       -2.36683
C          1.25957       -2.54790       -3.39482
C          0.49715       -1.39342       -3.43091
C          0.64273       -0.43567       -2.40861
Cl         1.19723        0.19323        3.20403
Cl        -1.53446       -1.57850        2.56242
H         -2.36139        3.98921       -2.51575
H         -2.83379        2.19953       -0.89091
H          2.95675       -2.03434       -0.54038
H          2.72871       -3.68665       -2.34682
H         -0.49096        3.74104       -4.09189
H          1.14516       -3.27426       -4.18154
C         -2.12578       -4.34396       -2.34226
C         -1.23387       -4.22289       -1.28541
C         -1.10704       -2.98672       -0.66381
C         -1.83037       -1.90494       -1.10880
C         -2.70552       -2.02955       -2.16198
C         -2.85839       -3.25748       -2.77892
H         -2.24125       -5.30044       -2.82293
C         -0.45066       -5.39266       -0.80359
H         -0.43265       -2.87201        0.16800
H         -3.25456       -1.16518       -2.50155
H         -3.54360       -3.36376       -3.60388
C         -5.22549        0.89446        2.13912
C         -5.28265       -0.23221        1.34253
C         -4.18706       -0.59611        0.58269
C         -3.04464        0.16773        0.62459
C         -2.98411        1.28785        1.42141
C         -4.07823        1.67433        2.18521
H         -6.07453        1.17464        2.73906
H         -6.17799       -0.83153        1.31773
H         -4.21357       -1.47945       -0.03388
H         -2.07889        1.87010        1.45528
C         -3.99533        2.87034        3.06679
C          5.63038       -0.50165        2.21699
C          5.49427        0.65799        1.47987
C          4.30149        0.93044        0.83676
C          3.25586        0.04181        0.93167
C          3.38993       -1.11383        1.66641
C          4.57775       -1.39939        2.32847
H          6.55915       -0.71722        2.71720
H          6.31625        1.35111        1.40644
H          4.18040        1.83464        0.26330
H          2.55847       -1.79490        1.74587
C          4.71808       -2.65629        3.11290
C          1.15840        4.81840       -0.74807
C          2.05629        4.09029       -1.50421
C          2.23979        2.74352       -1.25087
C          1.52462        2.13978       -0.24371
C          0.65048        2.86865        0.52948
C          0.44893        4.22109        0.28483
H          1.00040        5.86278       -0.95665
H          2.60374        4.56755       -2.30036
H          2.92018        2.15494       -1.84575
H          0.12800        2.38844        1.33857
C         -0.54538        4.99020        1.08105
Pd        -0.05916       -0.33025        1.42238
C          1.22665        1.72485       -4.33287
C         -0.46194       -1.19416       -4.55318
H          1.79617        2.65456       -4.37018
H          1.91723        0.92756       -4.05586
H          0.85794        1.51755       -5.33818
H         -1.20127       -0.42833       -4.31652
H          0.05985       -0.89130       -5.46172
H         -1.00374       -2.11602       -4.76920
H         -0.98497       -5.91566       -0.00930
H         -0.26495       -6.10258       -1.61084
H          0.51732       -5.07976       -0.40906
H         -3.54434        2.61196        4.02591
H         -3.38787        3.65288        2.60959
H         -4.98414        3.28856        3.26024
H          5.50262       -2.56748        3.86562
H          3.78881       -2.89839        3.63077
H          4.96910       -3.49417        2.46096
H         -0.59431        4.62304        2.10727
H         -0.28684        6.04927        1.11935
H         -1.54122        4.90110        0.64430
