171
-217.84327236
P         -1.55465        0.38314       -0.37830
P          1.62956       -0.31476       -0.30007
C         -0.83224        1.43852       -1.64020
C          1.00797       -1.21301       -1.72542
C          0.01693        0.90944       -2.60541
C          0.64869        1.78958       -3.50472
C          0.37297        3.14526       -3.43466
C         -0.49814        3.64565       -2.49068
C         -1.09244        2.78649       -1.58816
C          1.25780       -2.56064       -1.81447
C          0.74422       -3.29453       -2.86536
C         -0.03303       -2.67018       -3.81758
C         -0.29445       -1.31192       -3.74829
C          0.25103       -0.55849       -2.69040
Cl         1.54387        0.27670        2.92895
Cl        -1.65828       -0.31982        2.83725
C         -1.14315       -0.67993       -4.79567
C          1.59423        1.28727       -4.53820
H         -0.71002        4.70168       -2.45188
H         -1.76631        3.17082       -0.84028
H          1.86028       -3.04213       -1.06170
H          0.94686       -4.35056       -2.93796
H          0.85102        3.81231       -4.13210
H         -0.44865       -3.24041       -4.63127
C         -3.66728       -3.32107       -1.87642
C         -2.74409       -3.44729       -0.84529
C         -2.07681       -2.30325       -0.42889
C         -2.32643       -1.09488       -1.02939
C         -3.24158       -0.98456       -2.04748
C         -3.93763       -2.10367       -2.48975
H         -4.21115       -4.18758       -2.20205
H         -1.37542       -2.34793        0.38684
H         -3.42311       -0.01247       -2.47382
C         -4.64807        2.60361        2.09760
C         -3.31979        3.00876        2.17142
C         -2.39046        2.34190        1.38395
C         -2.77592        1.30087        0.57688
C         -4.08903        0.90552        0.52849
C         -5.05569        1.55161        1.28551
H         -5.38081        3.11388        2.69230
H         -1.35142        2.62306        1.41494
H         -4.36363        0.07439       -0.09700
C          4.18829       -2.90003        2.42143
C          2.85978       -3.25192        2.21419
C          2.11116       -2.47268        1.34188
C          2.66532       -1.37776        0.72607
C          3.97434       -1.03613        0.95779
C          4.76389       -1.78890        1.81648
H          4.78736       -3.50274        3.07602
H          1.07803       -2.70750        1.15236
H          4.38032       -0.16486        0.47518
C          3.95997        3.42423       -1.31929
C          2.84879        3.52860       -0.49189
C          2.14308        2.36791       -0.20194
C          2.52726        1.16826       -0.74654
C          3.61734        1.08377       -1.57771
C          4.37085        2.21476       -1.86792
H          4.52491        4.31349       -1.52578
H          1.29002        2.38795        0.45386
H          3.89077        0.12487       -1.98589
Pd        -0.01740       -0.00052        1.33888
C         -3.33514       -5.92098       -0.69653
C         -2.46788       -4.77868       -0.13407
C         -2.77918       -4.62355        1.36676
C         -0.98796       -5.15168       -0.32338
H         -3.12518       -6.85630       -0.17776
H         -4.39626       -5.70570       -0.57213
H         -3.13548       -6.08002       -1.75608
H         -2.58924       -5.55284        1.90347
H         -2.16841       -3.84510        1.82146
H         -3.82441       -4.35383        1.51630
H         -0.74748       -6.07723        0.19932
H         -0.75978       -5.29085       -1.37951
H         -0.33554       -4.36815        0.05761
C         -4.73140       -3.01126       -4.69725
C         -5.03458       -2.01682       -3.56060
C         -5.13328       -0.60095       -4.16179
C         -6.38874       -2.36686       -2.91606
H         -5.48261       -2.94337       -5.48396
H         -3.75873       -2.80728       -5.14279
H         -4.72346       -4.03869       -4.33582
H         -5.90190       -0.56156       -4.93353
H         -5.39652        0.13230       -3.39982
H         -4.19126       -0.29999       -4.61844
H         -6.38465       -3.37985       -2.51510
H         -6.61300       -1.68492       -2.09611
H         -7.19725       -2.29812       -3.64363
C         -3.97052        4.62689        4.02674
C         -2.85174        4.15635        3.07733
C         -2.41888        5.34165        2.19765
C         -1.66154        3.68076        3.93476
H         -4.32886        3.80428        4.64541
H         -3.60808        5.40976        4.69289
H         -4.81401        5.03585        3.47108
H         -1.62114        5.05113        1.51621
H         -3.25405        5.70080        1.59659
H         -2.05771        6.17040        2.80632
H         -1.93592        2.80263        4.51885
H         -0.80356        3.41550        3.31900
H         -1.34204        4.46062        4.62563
C         -7.43459        1.87916        2.13289
C         -6.51130        1.07119        1.20140
C         -6.57894       -0.41238        1.61194
C         -7.01264        1.22990       -0.24602
H         -7.43538        2.93558        1.86508
H         -8.46183        1.52132        2.06416
H         -7.12146        1.78530        3.17256
H         -7.60545       -0.77764        1.58826
H         -5.98857       -1.03738        0.94278
H         -6.19404       -0.54926        2.62225
H         -6.95877        2.27207       -0.56010
H         -6.41203        0.64157       -0.93856
H         -8.04754        0.90125       -0.33947
C          0.79987       -4.13040        3.37224
C          2.22256       -4.47668        2.88663
C          3.04021       -4.93892        4.10916
C          2.15795       -5.62408        1.86513
H          0.36338       -4.96188        3.92523
H          0.81787       -3.26036        4.02831
H          0.13447       -3.90930        2.54018
H          2.53407       -5.75342        4.62725
H          4.02362       -5.30431        3.81525
H          3.17237       -4.12262        4.81912
H          1.59817       -5.32592        0.98006
H          3.15894       -5.90957        1.54218
H          1.67539       -6.50304        2.29216
C          7.03009       -1.63742        0.76934
C          6.22511       -1.38112        2.05447
C          6.86069       -2.18400        3.20624
C          6.29086        0.11566        2.41900
H          8.07219       -1.34374        0.89416
H          7.00479       -2.69380        0.50254
H          6.61872       -1.07368       -0.06623
H          6.29265       -2.05993        4.12810
H          6.90802       -3.24639        2.96849
H          7.87967       -1.84687        3.39609
H          5.93958        0.74380        1.60156
H          5.67317        0.32551        3.29195
H          7.31306        0.41626        2.64814
C          1.14289        4.80103        0.89742
C          2.46233        4.88771        0.10680
C          2.28193        5.91722       -1.02455
C          3.57692        5.35234        1.06071
H          0.33190        4.45235        0.25917
H          1.23487        4.12097        1.74392
H          0.86185        5.77809        1.29007
H          3.20974        6.07391       -1.57306
H          1.52711        5.58049       -1.73409
H          1.96508        6.88132       -0.62714
H          3.32806        6.31148        1.51447
H          3.72425        4.62740        1.86111
H          4.52403        5.46604        0.53433
C          6.57647        1.04485       -2.10532
C          5.63380        2.08801       -2.73401
C          6.39247        3.42551       -2.83641
C          5.24375        1.63858       -4.15244
H          6.11544        0.05836       -2.08632
H          7.50448        0.96534       -2.67125
H          6.82807        1.32110       -1.08150
H          6.69297        3.78175       -1.85118
H          7.29545        3.31252       -3.43632
H          5.77802        4.19102       -3.30989
H          4.70410        0.69242       -4.13232
H          4.60773        2.38311       -4.62960
H          6.12787        1.50579       -4.77581
H         -0.58960       -0.56285       -5.72823
H          2.38365        2.01501       -4.72693
H         -1.49710        0.30393       -4.48494
H         -2.01922       -1.29377       -5.00494
H          1.08028        1.10361       -5.48235
H          2.06848        0.35690       -4.22248
