75
-122.81284633
P          1.91928       -0.52983        0.17560
C          1.63146       -1.57203       -1.25884
C          1.90075       -1.10435       -2.52467
C          1.79732       -1.95728       -3.60800
C          1.43034       -3.27423       -3.41319
C          1.16226       -3.73893       -2.14074
C          1.26741       -2.88385       -1.05831
H          1.08417       -3.23622       -0.05517
H          0.87322       -4.76593       -1.98973
H          1.34588       -3.93917       -4.25714
H          2.00193       -1.59361       -4.60147
H          2.19446       -0.07589       -2.65826
C          3.37244       -1.22714        0.99298
C          4.33434       -1.80658        0.19544
C          5.46815       -2.35690        0.76578
C          5.63450       -2.32188        2.13565
C          4.67343       -1.73372        2.93280
C          3.54479       -1.18357        2.35671
H          2.80611       -0.69532        2.96686
H          4.80550       -1.69663        4.00172
H          6.51677       -2.75045        2.58248
H          6.21856       -2.81287        0.14108
H          4.19215       -1.82917       -0.87342
C          2.27363        1.16146       -0.31393
C          3.43296        1.81169        0.03770
C          3.60500        3.15599       -0.26310
C          2.57679        3.83097       -0.91998
C          1.40583        3.19233       -1.26456
C          1.25323        1.82706       -0.97566
O          0.07908        1.13427       -1.31138
C         -1.12813        1.80331       -1.05394
C         -1.27774        3.17192       -1.32829
C         -2.46881        3.79487       -1.02883
C         -3.52315        3.09637       -0.44193
C         -3.36229        1.74345       -0.17861
C         -2.18378        1.10507       -0.48655
P         -1.82311       -0.61977       -0.09881
C         -3.14609       -1.35973        0.87608
C         -2.87873       -1.98022        2.07473
C         -3.90639       -2.56621        2.79059
C         -5.19465       -2.53750        2.29503
C         -5.45619       -1.93079        1.08288
C         -4.42605       -1.34490        0.36969
H         -4.61140       -0.89052       -0.59103
H         -6.45968       -1.91645        0.69036
H         -5.99632       -2.99304        2.85315
H         -3.70075       -3.04335        3.73470
H         -1.86855       -2.00288        2.45007
C         -1.75887       -1.55051       -1.64186
C         -1.41117       -0.93007       -2.81980
C         -1.45746       -1.63023       -4.01065
C         -1.84595       -2.95498       -4.01364
C         -2.18452       -3.57924       -2.82953
C         -2.14316       -2.87241       -1.64118
H         -2.42248       -3.34275       -0.71192
H         -2.48500       -4.61406       -2.83052
H         -1.87794       -3.50436       -4.94031
H         -1.18181       -1.14443       -4.93216
H         -1.08661        0.09635       -2.79915
Pd        -0.06338       -0.06805        1.41774
Cl        -1.78339        0.85759        2.55729
Cl         1.40248        0.89511        2.82855
H         -4.15617        1.19663        0.29747
C         -4.80533        3.77923       -0.12305
H         -4.65805        4.85122        0.01412
H         -5.23998        3.38492        0.79645
H         -5.52954        3.63834       -0.92636
H         -2.57890        4.84289       -1.24490
S          0.07614        4.05895       -2.05506
H          2.69089        4.87464       -1.15436
C          4.86660        3.85824        0.09348
H          4.20102        1.27565        0.56794
H          4.67951        4.90708        0.32738
H          5.33632        3.40349        0.96666
H          5.57876        3.81816       -0.73168
