72
-108.39822380
Cl         1.78304       -0.73868        2.74608
Cl        -1.06577        0.37293        2.79145
P         -1.09105        1.15204       -0.27112
P          2.24788       -0.09342       -0.38053
C          3.24919        1.50425       -0.16833
C          3.60873        1.68419        1.30801
C          4.51421        1.44226       -1.01703
C          3.31863       -1.64117       -0.09178
C          4.12761       -1.97227       -1.35295
C          1.45318       -0.41486       -2.06355
C          1.54147        0.72694       -3.05507
C         -1.12346       -0.17820       -1.50788
C          0.02852       -0.93572       -1.99650
C         -0.49264       -1.98895       -2.87015
C         -1.93725       -1.86940       -2.91617
C         -2.32473       -0.73237       -2.10325
C          2.39296        2.69160       -0.58643
H          2.71918        1.67252        1.93776
H          4.28345        0.91189        1.66697
H          5.05070        2.39157       -0.97505
H          4.28713        1.23813       -2.06213
C          4.28118       -1.48436        1.08159
H          4.90092       -2.70849       -1.12731
H          4.62065       -1.09144       -1.76053
H          2.05436       -1.23791       -2.46057
H          1.20419        0.41167       -4.04465
H          2.55570        1.10898       -3.16288
H          0.88797        1.54240       -2.75461
H          0.11253       -2.68112       -3.45870
H         -2.61295       -2.49198       -3.50695
Pd         0.52216        0.27232        1.18533
H         -3.33972       -0.37953       -1.90977
C          2.33783       -2.76751        0.19671
H          3.50826       -2.40853       -2.13584
H          3.76563       -1.16033        1.98283
H          4.76055       -2.43734        1.31006
H          5.07715       -0.77713        0.85595
H          1.82875       -2.59928        1.14488
H          1.58836       -2.84178       -0.59256
H          2.85325       -3.72769        0.26455
H          4.10859        2.64127        1.46590
H          5.19659        0.67165       -0.66245
H          2.14996        2.67168       -1.64549
H          1.46608        2.71129       -0.01570
H          2.91454        3.63121       -0.39631
C         -2.75126        1.24573        0.44591
C         -3.13456        2.13109        1.42251
C         -4.47502        1.87150        1.70804
C         -4.85714        0.83781        0.88925
O         -3.80860        0.44422        0.10906
H         -2.50538        2.86427        1.89983
H         -5.08860        2.37932        2.43415
H         -5.84122        0.38679        0.85680
C         -0.71744        2.76224       -0.98852
C         -0.72260        3.93324       -0.27114
C         -0.39031        4.95792       -1.15832
C         -0.19600        4.36811       -2.38307
O         -0.38928        3.01913       -2.29162
H         -0.93021        4.03421        0.78170
H         -0.30399        6.00707       -0.92725
H          0.07376        4.88267       -3.29698
Fe        -1.31043       -2.10608       -0.98244
C         -3.02173       -2.80797       -0.07194
C         -2.25448       -2.01160        0.86521
C         -0.94205       -2.60684        0.98897
C         -0.88987       -3.76102        0.10990
C         -2.18751       -3.90626       -0.52575
H         -4.05952       -2.62650       -0.36033
H         -2.60233       -1.12069        1.38994
H         -0.15986       -2.26147        1.66684
H         -0.05368       -4.45750        0.01317
H         -2.48180       -4.69613       -1.22057
