111
-148.55517185
P         -1.69184       -2.78836       -0.14152
P         -0.43769        0.07410       -0.59436
C         -1.53461       -2.12386       -1.82549
C         -1.05365       -0.84532       -2.01457
C         -0.56676       -4.23841        0.08556
C          0.50256       -3.92854        1.11202
C         -1.86479       -2.89984       -2.91832
H         -2.20262       -3.91223       -2.76913
C         -1.73726       -2.38181       -4.19571
H         -1.99933       -2.98632       -5.04866
C         -1.26896       -1.09475       -4.37967
H         -1.16459       -0.69422       -5.37457
C         -0.91531       -0.32683       -3.28469
H         -0.51432        0.66677       -3.40986
Pd        -1.36648       -0.96217        1.23826
Cl        -2.69053       -1.89769        2.79084
Cl        -0.97252        0.84049        2.52433
C         -1.52432       -5.37666        0.49248
C         -3.32843       -3.59821        0.16832
H          1.16093       -4.78515        1.27464
H          1.12006       -3.08216        0.80373
H          0.05116       -3.66919        2.07187
H         -1.49165       -5.48909        1.58482
H         -1.17090       -6.33727        0.08841
H         -3.58914       -3.35977        1.20743
C         -2.98873       -5.09470        0.04998
C         -4.41201       -3.10613       -0.76732
H         -0.12472       -4.43735       -0.89932
H         -3.12797       -5.41056       -0.99295
H         -3.69997       -5.69586        0.63695
H         -4.53750       -2.02362       -0.69123
H         -4.17088       -3.33475       -1.80569
H         -5.37315       -3.57501       -0.54462
C         -0.80558        4.60591       -0.68980
C          0.36487        3.98401       -1.19525
C          0.44226        2.60156       -1.15429
C         -0.61207        1.84841       -0.70784
C         -1.78685        2.43883       -0.32336
C         -1.92986        3.81674       -0.33553
O         -0.83580        6.01308       -0.49922
C          1.56009        4.78269       -1.73826
H          1.34263        2.09059       -1.44974
H         -2.58658        1.80390        0.01796
C         -3.27370        4.42922        0.08835
C          3.77910       -1.32722        0.38718
C          3.18071       -0.29166        1.15350
C          1.89593        0.10574        0.82489
C          1.25233       -0.41433       -0.26596
C          1.87135       -1.32529       -1.08106
C          3.15294       -1.77278       -0.80766
O          4.94717       -1.97675        0.86265
C          3.86770        0.42028        2.32998
H          1.35995        0.80120        1.44872
H          1.33196       -1.70532       -1.93139
C          3.81264       -2.72370       -1.82025
C          1.09822        6.09354       -2.40036
C          2.53458        5.08297       -0.58918
C          2.31021        3.97260       -2.82013
C         -4.44257        3.48750       -0.28062
C         -3.27512        4.63770        1.61060
C         -3.53111        5.76465       -0.63295
C         -0.38257        6.43270        0.78200
H          0.62853        6.75848       -1.67998
H          1.93956        6.62755       -2.84134
H          0.37422        5.89067       -3.18879
H          2.05695        5.67155        0.19027
H          2.88965        4.15847       -0.13489
H          3.40137        5.63808       -0.94689
H          1.62357        3.63174       -3.59461
H          3.07704        4.58232       -3.29747
H          2.81135        3.10270       -2.39812
H         -5.40162        3.97215       -0.09914
H         -4.40068        3.21229       -1.33414
H         -4.42903        2.57523        0.31377
H         -4.22298        5.05685        1.94703
H         -3.12086        3.69121        2.12835
H         -2.48065        5.31385        1.91684
H         -4.51240        6.16451       -0.37869
H         -2.79129        6.51292       -0.36046
H         -3.48857        5.63135       -1.71340
H          0.46537        7.10770        0.66716
H         -1.17922        6.97214        1.29397
H         -0.08390        5.57105        1.38049
C          4.65534       -3.07846        1.70661
C          5.37964        0.14193        2.38311
C          3.69407        1.94707        2.17054
C          3.21465       -0.02709        3.64850
C          5.32933       -2.85488       -1.59808
C          3.15648       -4.11090       -1.72291
C          3.61142       -2.17040       -3.24847
H          5.58058       -0.90590        2.59305
H          5.84918        0.38765        1.43125
H          5.86061        0.73242        3.16257
H          4.22244        2.48305        2.95850
H          4.09227        2.27954        1.21237
H          2.64765        2.24345        2.22107
H          2.14879        0.19892        3.65246
H          3.32646       -1.09923        3.79858
H          3.66802        0.48047        4.49944
H          5.54853       -3.33445       -0.64709
H          5.79116       -3.45352       -2.38288
H          5.80339       -1.87402       -1.59454
H          3.27750       -4.53549       -0.72821
H          2.08910       -4.05132       -1.93216
H          3.59949       -4.80228       -2.43921
H          2.56029       -2.15232       -3.53168
H          4.13377       -2.78584       -3.98049
H          3.99885       -1.15485       -3.32516
H          4.07256       -2.74813        2.56501
H          4.08189       -3.82620        1.16135
H          5.58848       -3.52288        2.05331
