64
-97.21832442
Cl        -1.39762       -0.59582       -2.81656
Cl         1.81041       -0.80008       -2.93535
P          1.97953       -0.59629        0.26456
C          2.22534       -2.33975        0.83705
C          3.75574       -0.06980        0.11417
P         -1.30750       -0.28584        0.36496
C          1.17687        0.44836        1.53675
C         -0.26412        0.61025        1.57492
C         -0.57915        1.59494        2.59753
C          0.67762        2.06636        3.15282
C          1.76468        1.32591        2.53618
H         -1.57840        1.91137        2.90202
H          0.78321        2.80303        3.95275
Pd         0.26330       -0.73994       -1.31711
H          2.83004        1.43932        2.74566
C         -5.15733        1.85108       -0.83028
C         -4.92019        0.55039       -1.22747
C         -3.74752       -0.08125       -0.85327
C         -2.81663        0.58667       -0.09053
C         -3.05693        1.88084        0.31208
C         -4.22640        2.51767       -0.05907
H         -6.06920        2.34604       -1.12232
H         -5.64454        0.02789       -1.83048
H         -3.54890       -1.09551       -1.16108
H         -2.32659        2.39423        0.91171
H         -4.40951        3.53295        0.25265
C         -2.43647       -4.40553        1.90435
C         -2.18378       -4.21832        0.55918
C         -1.84737       -2.96135        0.09106
C         -1.76375       -1.90665        0.97043
C         -2.02100       -2.08402        2.31003
C         -2.35786       -3.34063        2.78097
H         -2.69848       -5.38480        2.27059
H         -2.24964       -5.04824       -0.12505
H         -1.65812       -2.79238       -0.95714
H         -1.94979       -1.24123        2.97940
H         -2.55716       -3.48726        3.82982
C          4.20848        0.05628       -1.32396
H          3.84642        0.89508        0.62992
C          4.50264       -1.18051        0.87865
H          4.60895       -0.90096        1.93712
C          3.75252       -2.53521        0.77633
H          5.52743       -1.27335        0.49026
C          1.64979       -2.52191        2.22477
H          1.71106       -2.98972        0.11585
H          4.06928       -3.21604        1.57953
H          4.02994       -3.03551       -0.16285
H          0.58188       -2.29767        2.24486
H          1.78663       -3.54390        2.58605
H          2.13785       -1.84982        2.93344
H          5.26557        0.32305       -1.38871
H          4.07395       -0.89008       -1.85018
H          3.64004        0.81426       -1.86466
Fe         0.66236        2.36093        1.13682
C          2.04656        3.29579       -0.01073
C          1.13266        4.24876        0.59778
C         -0.21397        3.92382        0.15712
C         -0.12967        2.76557       -0.71473
C          1.26412        2.38421       -0.82323
H          3.13424        3.29214        0.09329
H          1.41240        5.08178        1.24736
H         -1.12248        4.47549        0.40973
H         -0.95699        2.29069       -1.24607
H          1.64844        1.58518       -1.45957
