75
-122.81834450
P          1.86534       -0.55080        0.01488
C          1.70035       -1.55208       -1.46732
C          1.78633       -0.98063       -2.71603
C          1.74786       -1.78126       -3.84254
C          1.62509       -3.15017       -3.70892
C          1.53644       -3.71909       -2.45378
C          1.57694       -2.91544       -1.32845
H          1.52668       -3.34507       -0.34015
H          1.43683       -4.78697       -2.34969
H          1.59124       -3.77526       -4.58623
H          1.81030       -1.33639       -4.82198
H          1.87913        0.08935       -2.80367
C          3.20608       -1.28347        0.96636
C          4.46738       -1.29864        0.41535
C          5.51453       -1.87885        1.10843
C          5.28779       -2.44918        2.34517
C          4.01761       -2.44622        2.88640
C          2.97301       -1.86580        2.19081
H          1.97681       -1.85918        2.60254
H          3.83942       -2.89391        3.85030
H          6.10271       -2.90045        2.88734
H          6.50394       -1.88791        0.68154
H          4.62464       -0.86655       -0.56067
C          2.22894        1.16026       -0.41023
C          3.38314        1.81502       -0.04910
C          3.54871        3.16308       -0.33484
C          2.50836        3.84698       -0.96265
C          1.33975        3.20720       -1.31176
C          1.19708        1.83634       -1.04393
O          0.01466        1.14948       -1.36464
C         -1.18275        1.81908       -1.06269
C         -1.34109        3.18757       -1.33343
C         -2.52517        3.80994       -1.00572
C         -3.56177        3.11299       -0.38613
C         -3.38753        1.76362       -0.11280
C         -2.21678        1.12625       -0.45114
P         -1.83956       -0.58120       -0.01953
C         -3.16320       -1.29794        0.96880
C         -4.42602       -1.35592        0.42401
C         -5.46189       -1.92224        1.14493
C         -5.22264       -2.43515        2.40418
C         -3.95132       -2.38803        2.94060
C         -2.91802       -1.82150        2.21733
H         -1.92157       -1.78166        2.62618
H         -3.76348       -2.79066        3.92239
H         -6.02868       -2.87573        2.96798
H         -6.45223       -1.96510        0.72228
H         -4.59321       -0.96819       -0.56888
C         -1.71407       -1.58189       -1.50923
C         -1.54500       -0.99374       -2.74157
C         -1.54082       -1.77353       -3.88298
C         -1.70173       -3.14107       -3.78149
C         -1.86235       -3.72943       -2.54268
C         -1.87073       -2.94512       -1.40314
H         -2.01397       -3.38778       -0.43000
H         -1.98457       -4.79704       -2.46270
H         -1.69410       -3.75100       -4.67002
H         -1.40454       -1.31449       -4.84830
H         -1.40369        0.07228       -2.80381
Pd        -0.00327       -0.05944        1.38756
Cl        -1.59959        0.94563        2.63014
Cl         1.58676        0.79042        2.74640
H         -4.16385        1.21765        0.39307
C         -4.83716        3.79394       -0.03719
H         -5.23311        3.42096        0.90833
H         -5.58991        3.62533       -0.80829
H         -4.69496        4.87045        0.06550
H         -2.64226        4.85700       -1.22265
S         -0.00099        4.07599       -2.08254
H          2.60963        4.89819       -1.16727
C          4.78497        3.87718        0.08102
H          4.15190        1.28378        0.48345
H          4.99096        4.72356       -0.57543
H          4.68785        4.25565        1.09932
H          5.65071        3.21435        0.04921
