45
-71.82105052
C          0.38459        1.48502        3.16793
P         -0.16724        0.76787        1.58554
P         -0.13334        0.79693       -1.57659
C          0.44947        1.54327       -3.13422
Cl         2.93570       -0.07357        1.66538
H          0.78415        2.48153        3.00283
H         -0.36858        1.61148       -3.84555
Cl         3.00336        0.03773       -1.59482
C         -1.32470        1.82746        0.69100
C         -1.31092        1.83892       -0.68776
C         -2.22187        2.60625       -1.38439
C         -3.14565        3.37139       -0.69456
C         -3.15948        3.35988        0.68665
C         -2.24963        2.58312        1.38195
H         -2.21074        2.59700       -2.46225
H         -3.85717        3.97288       -1.23602
H         -3.88183        3.95235        1.22370
H         -2.26040        2.55553        2.45951
Pd         1.48848        0.40810        0.01823
H          1.23785        0.93025       -3.56166
H          1.16083        0.86113        3.60182
H          0.84073        2.53851       -2.94357
C         -1.73147       -3.43404       -1.98830
C         -0.37376       -3.19483       -2.07282
C          0.10302       -1.90109       -1.97085
C         -0.77799       -0.86092       -1.78596
C         -2.13086       -1.09256       -1.69819
C         -2.61142       -2.38547       -1.80278
H         -2.10513       -4.44215       -2.06336
H          0.31344       -4.01321       -2.21108
H          1.16023       -1.69062       -2.01304
H         -2.80170       -0.26469       -1.53414
H         -3.66990       -2.57405       -1.73038
C         -1.79917       -3.46000        1.89003
C         -0.44178       -3.23166        2.00399
C          0.04508       -1.93965        1.93429
C         -0.82514       -0.89001        1.75240
C         -2.17765       -1.11093        1.63542
C         -2.66855       -2.40218        1.70735
H         -2.18074       -4.46672        1.93976
H          0.23744       -4.05703        2.14008
H          1.10262       -1.73742        1.99935
H         -2.83996       -0.27571        1.47405
H         -3.72671       -2.58209        1.61178
H         -0.44844        1.54493        3.86242
