111
-148.55830111
P         -2.52158       -2.14231       -0.40896
P          0.04680       -0.30594       -0.42206
C         -1.63343       -1.86271       -1.96169
C         -0.50799       -1.06894       -1.95927
C         -3.11957       -3.88731       -0.27069
C         -2.27919       -4.67804        0.70828
C         -2.08234       -2.41992       -3.14194
H         -2.97357       -3.02588       -3.14039
C         -1.39332       -2.18523       -4.31936
H         -1.74141       -2.62112       -5.24156
C         -0.26366       -1.38961       -4.31462
H          0.27151       -1.20472       -5.23147
C          0.17729       -0.82496       -3.13124
H          1.05167       -0.19349       -3.11256
Pd        -1.15998       -1.34584        1.26991
Cl        -2.66722       -2.04432        2.77465
Cl         0.35423       -0.63186        2.76103
C         -4.59186       -3.70844        0.14483
C         -4.12976       -1.23107       -0.32453
H         -2.31546       -4.22787        1.70162
H         -2.63453       -5.70712        0.79959
H         -1.23137       -4.70620        0.39959
H         -4.65302       -3.73281        1.24169
H         -5.19553       -4.56016       -0.20403
H         -4.14802       -0.73497        0.65497
C         -5.17420       -2.36262       -0.37445
C         -4.24587       -0.22012       -1.44577
H         -3.05549       -4.32303       -1.27579
H         -5.51110       -2.48706       -1.41276
H         -6.07270       -2.07875        0.19428
H         -4.18696       -0.71302       -2.41783
H         -5.19720        0.31536       -1.40429
H         -3.43852        0.51480       -1.40538
C         -1.26156        4.05921       -0.52147
C         -1.96359        3.13196        0.28968
C         -1.55239        1.81027        0.27969
C         -0.44157        1.41775       -0.42071
C          0.30023        2.32939       -1.12557
C         -0.06367        3.66564       -1.17066
O         -1.77301        5.37132       -0.70771
C         -3.15866        3.53416        1.16933
H         -2.10580        1.06754        0.82537
H          1.17037        1.97682       -1.65192
C          0.81608        4.65862       -1.94676
C          4.49863       -0.89645        0.34805
C          3.82130        0.20752        0.92540
C          2.46894        0.35583        0.66548
C          1.80833       -0.50615       -0.16958
C          2.47898       -1.52033       -0.80228
C          3.83630       -1.71295       -0.60422
O          5.82382       -1.20826        0.75288
C          4.51214        1.20136        1.87184
H          1.89864        1.13527        1.14089
H          1.92118       -2.17124       -1.45279
C          4.55740       -2.81159       -1.40135
C         -3.25076        2.62059        2.41385
C         -3.00442        4.97699        1.68363
C         -4.45963        3.39397        0.36507
C          2.29046        4.19652       -1.95502
C          0.32427        4.74523       -3.39946
C          0.78809        6.05158       -1.29156
C         -2.68805        5.49137       -1.78968
H         -4.00767        2.98632        3.10720
H         -3.52844        1.60171        2.14813
H         -2.29897        2.58913        2.94343
H         -2.06480        5.09324        2.22269
H         -3.00978        5.69293        0.86562
H         -3.81790        5.24180        2.35859
H         -5.32252        3.67916        0.96632
H         -4.44610        4.02181       -0.52236
H         -4.60214        2.36405        0.04043
H          2.64264        4.01452       -0.94082
H          2.42568        3.28537       -2.53587
H          2.93187        4.95714       -2.39966
H          0.93738        5.43503       -3.97890
H          0.36896        3.76806       -3.87986
H         -0.70563        5.09008       -3.44736
H         -0.20832        6.48527       -1.32327
H          1.09283        5.99030       -0.24732
H          1.46249        6.73856       -1.80218
H         -2.31348        6.22347       -2.50489
H         -2.81798        4.52955       -2.28741
H         -3.65048        5.84252       -1.41799
C          5.89561       -2.11720        1.84444
C          3.84631        2.59308        1.78531
C          4.38944        0.68941        3.31516
C          5.99314        1.39129        1.49716
C          6.02979       -2.43980       -1.65475
C          4.47062       -4.13909       -0.63336
C          3.89771       -2.99842       -2.78717
H          2.83055        2.58174        2.17746
H          4.40492        3.32600        2.36700
H          3.81405        2.94030        0.75369
H          4.85492        1.38123        4.01660
H          3.34217        0.57691        3.59494
H          4.86747       -0.28023        3.43131
H          6.08834        1.71098        0.45997
H          6.46359        2.14432        2.12891
H          6.55438        0.46774        1.61396
H          6.10071       -1.47853       -2.16262
H          6.58703       -2.36663       -0.72429
H          6.52190       -3.18847       -2.27508
H          3.43111       -4.42560       -0.47560
H          4.96225       -4.94115       -1.18334
H          4.94383       -4.06203        0.34257
H          2.89637       -3.41838       -2.70525
H          4.48090       -3.68156       -3.40427
H          3.82850       -2.04734       -3.31460
H          6.42105       -1.64896        2.67659
H          4.89375       -2.40689        2.16408
H          6.45350       -3.00464        1.54611
