111
-148.55664855
P         -2.49817       -2.07497       -0.95635
P          0.15372       -0.41711       -0.48422
C         -1.35390       -1.80005       -2.33541
C         -0.18209       -1.10904       -2.11487
C         -3.29880       -3.74160       -1.03150
C         -2.73952       -4.66454        0.02917
C         -1.65257       -2.26182       -3.60125
H         -2.57992       -2.78312       -3.77342
C         -0.76766       -2.03798       -4.64205
H         -0.99964       -2.39834       -5.63097
C          0.40992       -1.35104       -4.41629
H          1.09744       -1.17517       -5.22719
C          0.70175       -0.88064       -3.14853
H          1.60912       -0.32921       -2.95722
Pd        -1.32878       -1.48495        0.93755
Cl        -3.07280       -2.11988        2.19581
Cl        -0.04414       -0.84876        2.67004
C         -4.79512       -3.41232       -0.87067
C         -3.99255       -0.98646       -1.01576
H         -3.21488       -5.64763       -0.00571
H         -1.66252       -4.80304       -0.09267
H         -2.90561       -4.25374        1.02628
H         -5.06327       -3.50389        0.19091
H         -5.41114       -4.15778       -1.39619
H         -4.12531       -0.59671        0.00251
C         -5.12273       -1.97327       -1.36219
C         -3.81365        0.14452       -2.00477
H         -3.09986       -4.14001       -2.03444
H         -5.26371       -1.98117       -2.45183
H         -6.07845       -1.62287       -0.94347
H         -3.61680       -0.24315       -3.00604
H         -4.70604        0.77225       -2.06015
H         -2.96988        0.77974       -1.72758
C         -1.18666        3.92922       -0.22147
C         -1.02898        3.32592       -1.49824
C         -0.60449        2.00844       -1.55317
C         -0.42042        1.27788       -0.40882
C         -0.69510        1.81900        0.81875
C         -1.12117        3.12815        0.94911
O         -1.32201        5.33688       -0.10980
C         -1.30632        4.04918       -2.82700
H         -0.40239        1.53888       -2.50022
H         -0.55787        1.19900        1.68826
C         -1.50834        3.61506        2.35499
C          4.49189       -0.72857        0.86621
C          3.79940        0.50626        0.97472
C          2.47897        0.55168        0.56236
C          1.87278       -0.53713       -0.00719
C          2.57123       -1.69630       -0.22130
C          3.89821       -1.81078        0.16227
O          5.73577       -0.90373        1.52519
C          4.42265        1.80210        1.52074
H          1.89943        1.44848        0.69793
H          2.06251       -2.52193       -0.68989
C          4.64686       -3.10105       -0.21342
C          0.02757        4.36243       -3.52453
C         -2.15452        3.13900       -3.74269
C         -2.10156        5.35153       -2.63006
C         -2.43139        2.56907        3.02006
C         -0.23775        3.77801        3.20581
C         -2.28176        4.94423        2.32283
C         -0.07334        5.99886        0.00592
H         -0.13978        4.85777       -4.48060
H          0.64726        5.01517       -2.91258
H          0.59193        3.44977       -3.71365
H         -3.08505        2.85912       -3.25011
H         -2.40844        3.65104       -4.67047
H         -1.62611        2.22571       -4.01091
H         -3.01876        5.16122       -2.07379
H         -1.52264        6.08710       -2.07661
H         -2.37031        5.79656       -3.58781
H         -2.78350        2.92161        3.98903
H         -3.30291        2.37328        2.39607
H         -1.91900        1.62305        3.18673
H         -0.48387        4.11187        4.21339
H          0.29844        2.83322        3.28810
H          0.43984        4.50749        2.76595
H         -1.65744        5.75488        1.95474
H         -3.14968        4.86781        1.66881
H         -2.62863        5.22113        3.31809
H         -0.24252        7.07158        0.10164
H          0.46131        5.63858        0.88346
H          0.53420        5.80776       -0.87720
C          5.59100       -1.37941        2.85305
C          3.86746        2.08167        2.92717
C          5.95848        1.73371        1.57521
C          4.05508        2.98197        0.59237
C          6.17257       -2.95446       -0.07777
C          4.15969       -4.25350        0.68026
C          4.35855       -3.44996       -1.69063
H          2.78121        2.16204        2.90677
H          4.12699        1.28332        3.61943
H          4.26600        3.01443        3.32533
H          6.38401        2.69111        1.87499
H          6.29479        0.98635        2.28989
H          6.36616        1.47036        0.59987
H          4.35829        2.77313       -0.43316
H          2.98478        3.18216        0.59359
H          4.55463        3.89660        0.91079
H          6.46425       -2.80707        0.95932
H          6.68661       -3.84414       -0.44080
H          6.52873       -2.09837       -0.64970
H          4.36103       -4.04972        1.73010
H          3.08599       -4.40338        0.57163
H          4.65726       -5.18684        0.41810
H          3.30830       -3.68509       -1.85453
H          4.93761       -4.31803       -2.00472
H          4.62282       -2.61650       -2.34090
H          4.99307       -0.68173        3.43681
H          5.09476       -2.34836        2.85108
H          6.57630       -1.47964        3.30875
