75
-122.81130724
P          1.83636       -0.53913        0.01295
C          1.68149       -1.51037       -1.49406
C          1.71105       -0.91256       -2.73322
C          1.68723       -1.69146       -3.87500
C          1.63709       -3.06707       -3.76766
C          1.60609       -3.66390       -2.52296
C          1.63073       -2.88113       -1.38258
H          1.62589       -3.33301       -0.40311
H          1.56370       -4.73731       -2.43863
H          1.61494       -3.67567       -4.65686
H          1.70425       -1.22452       -4.84599
H          1.74616        0.16185       -2.80232
C          3.15875       -1.33342        0.94071
C          4.45381       -1.22565        0.48709
C          5.47504       -1.87036        1.16139
C          5.18918       -2.63117        2.27751
C          3.88546       -2.75642        2.71439
C          2.86683       -2.11125        2.03725
H          1.84334       -2.20509        2.36391
H          3.66061       -3.35506        3.58174
H          5.98404       -3.13276        2.80502
H          6.49077       -1.78248        0.81231
H          4.65845       -0.65445       -0.40467
C          2.21455        1.17893       -0.38505
C          3.33837        1.85250        0.03416
C          3.49608        3.20353       -0.24277
C          2.47716        3.87323       -0.91956
C          1.33460        3.21752       -1.32083
C          1.20086        1.84459       -1.05970
O          0.03479        1.14823       -1.42237
C         -1.17573        1.80406       -1.14052
C         -1.34298        3.16818       -1.42733
C         -2.53962        3.78042       -1.12780
C         -3.58155        3.07641       -0.52516
C         -3.38805        1.73852       -0.21006
C         -2.20579        1.10929       -0.52309
P         -1.79358       -0.57500       -0.02784
C         -3.08261       -1.28069        1.01196
C         -2.79501       -1.76649        2.26674
C         -3.79941       -2.32712        3.03396
C         -5.08404       -2.40749        2.53447
C         -5.36524       -1.93429        1.26832
C         -4.35833       -1.37339        0.50350
H         -4.55806       -1.01847       -0.49557
H         -6.36586       -2.00405        0.87445
H         -5.86765       -2.84332        3.13254
H         -3.57870       -2.69883        4.02108
H         -1.78827       -1.70070        2.64627
C         -1.68139       -1.62682       -1.48145
C         -1.59987       -1.07793       -2.74050
C         -1.60592       -1.90020       -3.85187
C         -1.69116       -3.26922       -3.69339
C         -1.76653       -3.81687       -2.42799
C         -1.76405       -2.99078       -1.31831
H         -1.84110       -3.40174       -0.32398
H         -1.83008       -4.88536       -2.30395
H         -1.69138       -3.91182       -4.55862
H         -1.53743       -1.47260       -4.83857
H         -1.52106       -0.00874       -2.84724
Pd        -0.00487        0.11530        1.37431
Cl        -1.64866        1.06996        2.57727
Cl         1.58761        0.39221        2.93381
H         -4.15635        1.19788        0.31333
C         -4.84868        3.76251       -0.15813
H         -5.05353        4.59759       -0.82923
H         -4.79548        4.15223        0.85917
H         -5.69587        3.07756       -0.21253
H         -2.66107        4.82630       -1.34797
S          0.01028        4.06188       -2.14777
H          2.57266        4.92601       -1.11854
C          4.69958        3.93609        0.23299
H          4.08650        1.33584        0.60831
H          5.57564        3.28629        0.24453
H          4.92510        4.78529       -0.41331
H          4.54680        4.31336        1.24489
