87
-129.18197162
P         -1.72345       -0.31530        0.21799
P          1.59505        0.31535       -0.20939
C         -1.45147        1.07470       -0.91132
C          1.15780       -0.61707       -1.68074
C         -0.64745        1.04897       -2.04890
C         -0.46863        2.24012       -2.77836
C         -1.10653        3.39585       -2.36179
C         -1.89516        3.40445       -1.23245
C         -2.05793        2.24077       -0.50588
C          1.88937       -1.72193       -2.04058
C          1.55794       -2.42597       -3.18157
C          0.49128       -2.01531       -3.95454
C         -0.26139       -0.90544       -3.60608
C          0.08369       -0.18262       -2.44689
Cl         1.65223        1.21530        2.87507
Cl        -1.04015       -0.51335        3.38341
H         -2.37442        4.31469       -0.91141
H         -2.65640        2.23899        0.39306
H          2.72365       -2.03023       -1.43270
H          2.12854       -3.29538       -3.46417
H         -0.96588        4.30207       -2.92625
H          0.22723       -2.56580       -4.84151
C         -0.87141       -4.51681       -1.29513
C         -0.30465       -4.09214       -0.10155
C         -0.58574       -2.80641        0.34450
C         -1.39804       -1.97349       -0.39070
C         -1.98647       -2.41647       -1.55136
C         -1.71770       -3.69243       -2.00989
H         -0.64992       -5.50653       -1.65663
C          0.60500       -4.98455        0.66617
H         -0.20172       -2.46940        1.29228
H         -2.64063       -1.75848       -2.09992
H         -2.16080       -4.03858       -2.92924
C         -6.12357       -0.18406        1.38383
C         -5.17055       -0.34394        2.36999
C         -3.83215       -0.37852        2.03310
C         -3.45234       -0.25578        0.71854
C         -4.40033       -0.09778       -0.26683
C         -5.75288       -0.05043        0.05288
H         -7.16874       -0.16246        1.64176
H         -5.46951       -0.44287        3.40068
H         -3.07604       -0.49857        2.78940
H         -4.08857       -0.00227       -1.29407
C         -6.77863        0.09786       -1.01525
C          5.10951       -1.65736        1.91799
C          5.22989       -0.36887        1.43713
C          4.16562        0.22535        0.78618
C          2.99335       -0.47280        0.61449
C          2.87100       -1.75589        1.09485
C          3.92668       -2.36659        1.76036
H          5.93711       -2.12245        2.42594
H          6.15008        0.17536        1.57316
H          4.24164        1.23545        0.41828
H          1.94931       -2.29174        0.95038
C          3.79090       -3.75742        2.27198
C          2.66580        4.57194       -1.37955
C          3.21117        3.50716       -2.06980
C          2.89079        2.21245       -1.70535
C          2.03674        1.99676       -0.64939
C          1.50249        3.05419        0.04873
C          1.79809        4.36157       -0.31659
H          2.91250        5.58102       -1.66260
H          3.88093        3.68401       -2.89533
H          3.29420        1.36835       -2.24259
H          0.85107        2.86661        0.88524
C          1.22057        5.50377        0.44217
Pd         0.11148        0.19665        1.59896
C          0.40137        2.29086       -3.98658
C         -1.41576       -0.50487       -4.45687
H         -0.19774        2.28346       -4.89787
H          1.00717        3.19809       -3.99104
H          1.08475        1.44197       -4.02393
H         -2.05153        0.22259       -3.95073
H         -1.07353       -0.06069       -5.39239
H         -2.03555       -1.36833       -4.70291
H          0.26638       -6.02067        0.62327
H          1.61718       -4.94414        0.26154
H          0.64767       -4.69415        1.71674
H         -6.39004        0.67464       -1.85589
H         -7.08945       -0.87778       -1.39156
H         -7.66473        0.61317       -0.64181
H          4.57799       -3.99513        2.98884
H          2.83340       -3.89451        2.77632
H          3.85164       -4.47900        1.45619
H          1.83681        5.74292        1.30990
H          1.15140        6.39698       -0.18031
H          0.21593        5.26904        0.79721
