111
-148.55558326
P         -2.51249       -2.01234       -1.09838
P          0.15261       -0.40597       -0.52654
C         -1.33758       -1.71092       -2.44642
C         -0.16023       -1.04454       -2.18310
C         -3.32703       -3.66793       -1.23934
C         -2.79677       -4.62962       -0.19835
C         -1.61856       -2.12945       -3.73126
H         -2.54956       -2.63188       -3.93657
C         -0.71105       -1.88691       -4.74812
H         -0.92927       -2.21360       -5.75176
C          0.47157       -1.22450       -4.47957
H          1.17658       -1.03382       -5.27188
C          0.74606       -0.79754       -3.19267
H          1.65709       -0.26522       -2.96768
Pd        -1.36768       -1.49789        0.83286
Cl        -3.14469       -2.15789        2.03139
Cl        -0.10993       -0.94032        2.61168
C         -4.82285       -3.32855       -1.09665
C         -3.99496       -0.90734       -1.15574
H         -3.27984       -5.60660       -0.27416
H         -1.71883       -4.77417       -0.30373
H         -2.97885       -4.24971        0.80812
H         -5.11170       -3.44794       -0.04329
H         -5.43591       -4.05235       -1.65491
H         -4.14417       -0.54572       -0.12943
C         -5.12731       -1.87267       -1.55232
C         -3.78661        0.24998       -2.10812
H         -3.11287       -4.03680       -2.25042
H         -5.24708       -1.84773       -2.64424
H         -6.08772       -1.52512       -1.14206
H         -3.57036       -0.11078       -3.11540
H         -4.67323        0.88566       -2.16531
H         -2.94531        0.87140       -1.79461
C         -1.13890        3.94462       -0.14874
C         -0.98389        3.37568       -1.43950
C         -0.57696        2.05494       -1.53104
C         -0.40375        1.29229       -0.40639
C         -0.66078        1.80674        0.83631
C         -1.06617        3.11843        1.00139
O         -1.32567        5.34547       -0.00798
C         -1.21601        4.18008       -2.72803
H         -0.37922        1.60395       -2.48727
H         -0.52412        1.15979        1.68533
C         -1.38349        3.62192        2.41749
C          4.43547       -0.82546        0.95914
C          3.76626        0.42047        1.06077
C          2.46495        0.50189        0.59729
C          1.85606       -0.56681       -0.00629
C          2.53095       -1.74387       -0.19583
C          3.83881       -1.89241        0.23831
O          5.68286       -1.01613        1.61093
C          4.40254        1.66313        1.70281
H          1.89757        1.40731        0.72059
H          2.01356       -2.55367       -0.68086
C          4.57488       -3.21156       -0.04446
C         -2.32436        5.23032       -2.53130
C          0.09494        4.86495       -3.14252
C         -1.67301        3.25413       -3.87832
C         -0.09187        4.13330        3.07384
C         -2.44482        4.73626        2.38813
C         -1.95797        2.47658        3.28359
C         -0.11474        6.07762        0.13449
H         -2.53512        5.75688       -3.46178
H         -3.24554        4.75700       -2.19297
H         -2.03946        5.97332       -1.79043
H          0.44264        5.54919       -2.37236
H          0.87917        4.12681       -3.30912
H         -0.03547        5.43316       -4.06317
H         -0.88389        2.56876       -4.18388
H         -2.54241        2.66794       -3.58281
H         -1.94756        3.83703       -4.75721
H         -0.28335        4.49379        4.08414
H          0.64988        3.33721        3.13484
H          0.34513        4.94882        2.50230
H         -2.08479        5.61434        1.85821
H         -3.34859        4.39144        1.88685
H         -2.71412        5.04769        3.39707
H         -1.20950        1.71473        3.49577
H         -2.30832        2.85525        4.24337
H         -2.80028        1.99808        2.78465
H         -0.10387        6.58586        1.09846
H          0.74471        5.40932        0.06671
H         -0.05117        6.83260       -0.64903
C          5.57006       -1.49286        2.94606
C          5.92491        1.68773        1.47748
C          3.83278        2.95580        1.07294
C          4.08631        1.67284        3.20622
C          4.31720       -4.19413        1.10797
C          4.06734       -3.84819       -1.35842
C          6.08715       -2.97894       -0.21578
H          6.15584        1.64151        0.41375
H          6.36616        2.59859        1.88136
H          6.41175        0.84445        1.96067
H          4.37350        3.83146        1.43132
H          3.92081        2.92952       -0.01287
H          2.78441        3.10291        1.32839
H          3.00926        1.67909        3.37252
H          4.49083        0.79266        3.70003
H          4.50816        2.55406        3.68881
H          4.68131       -3.79800        2.05278
H          3.25026       -4.38607        1.21908
H          4.81512       -5.14657        0.92809
H          4.11840       -3.13415       -2.18003
H          4.67315       -4.71290       -1.62842
H          3.03900       -4.19481       -1.26820
H          6.53790       -2.60541        0.70021
H          6.27640       -2.24956       -1.00264
H          6.59846       -3.90414       -0.48044
H          6.02688       -0.77802        3.63021
H          4.52143       -1.63229        3.21216
H          6.09917       -2.44086        3.04181
