115
-277.94746619
P         -1.90368       -0.66514       -0.09905
P          1.77539        0.42832       -0.19210
C         -2.11310       -2.44003        0.10295
C         -1.03014       -3.24814        0.37233
H         -0.08741       -2.81693        0.66477
C         -1.14095       -4.61211        0.19802
H         -0.28031       -5.25563        0.29511
C         -2.32902       -5.16316       -0.25308
C         -3.44500       -4.35243       -0.39348
H         -4.36090       -4.78304       -0.76480
C         -3.33943       -2.98877       -0.20675
H         -4.18059       -2.34393       -0.40933
C         -3.35136        0.15205        0.61285
C         -4.03561       -0.40080        1.67115
H         -3.70164       -1.33425        2.09491
C         -5.13170        0.24915        2.20157
H         -5.66952       -0.15927        3.04267
C         -5.55421        1.45004        1.66737
C         -4.86421        1.99717        0.60298
H         -5.19907        2.93895        0.19729
C         -3.76609        1.34991        0.07767
H         -3.23821        1.77627       -0.75856
C         -1.69991       -0.16351       -1.84218
C         -1.16999        1.11044       -1.93608
H         -0.86579        1.61720       -1.03577
C         -0.86907        1.68396       -3.17017
C         -1.31023        1.02679       -4.31197
H         -1.12406        1.46591       -5.27777
C         -1.82851       -0.24989       -4.22793
H         -2.04029       -0.79282       -5.13354
C         -1.92138       -0.91544       -3.00517
C          1.50163       -0.10911       -1.91422
C          0.96952       -1.38463       -1.95853
H          0.70530       -1.87246       -1.03548
C          0.61561       -1.98354       -3.16619
C          1.00608       -1.35023       -4.33948
H          0.77784       -1.80897       -5.28695
C          1.52730       -0.07240       -4.30448
H          1.69943        0.45157       -5.22945
C          1.67286        0.61831       -3.10094
C         -1.89977       -2.42917       -3.04451
H         -2.54005       -2.77472       -3.86415
H         -2.38154       -2.82398       -2.15386
C         -0.45654       -3.03851       -3.19588
H         -0.25550       -3.77678       -2.41231
H         -0.37683       -3.60756       -4.12905
C          0.20040        2.73749       -3.26978
H          0.03450        3.49263       -2.49417
H          0.07896        3.28668       -4.21035
C          1.64920        2.13085       -3.17027
H          2.25250        2.45980       -4.02412
H          2.17024        2.54393       -2.31042
C          2.02085        2.20434       -0.04585
C          0.96253        3.03883        0.24090
C          3.24382        2.72254       -0.41622
C          1.08905        4.39526        0.02289
C          3.36481        4.07840       -0.64631
C          2.26782        4.91218       -0.48965
C          3.24234       -0.38619        0.48243
C          3.66508       -1.57179       -0.07442
C          3.94788        0.17357        1.52234
C          4.79375       -2.20028        0.41056
H          3.12452       -1.99796       -0.90253
C          5.07434       -0.45513        2.00975
H          3.61502        1.10210        1.95763
C          5.50164       -1.64856        1.45932
H          5.15141       -3.12008       -0.02456
H          5.64003       -0.02364        2.82030
Pd        -0.03470       -0.09184        1.21415
Cl        -1.44355       -0.81849        2.81355
Cl         1.38874        0.76010        2.73608
H          4.27373        4.48196       -1.06276
H          4.06693        2.05792       -0.62906
H          0.24325        5.05626        0.13390
H          0.02477        2.63279        0.58156
C         -3.65498       -7.22509       -0.90232
C         -2.27021       -6.51535       -0.91787
C         -1.74182       -6.25116       -2.36377
F         -4.51206       -6.55831       -1.68769
F         -3.50655       -8.48701       -1.33448
F         -4.10143       -7.21874        0.36238
F         -1.39285       -7.30221       -0.29032
F         -1.77370       -7.38474       -3.07702
F         -2.49319       -5.30047       -2.93711
F         -0.48579       -5.79965       -2.25268
C         -6.20201        3.40459        3.06913
C         -6.72806        2.17359        2.27657
C         -7.74275        2.57280        1.16480
F         -5.40391        2.94356        4.04408
F         -5.49835        4.19357        2.24407
F         -7.23860        4.07390        3.59572
F         -7.36422        1.37485        3.13784
F         -7.18700        3.48772        0.35828
F         -8.03074        1.46556        0.46432
F         -8.85461        3.06126        1.73561
C          7.98029       -1.57717        1.28475
C          6.77091       -2.31359        1.92834
C          6.83932       -2.32256        3.48402
F          9.12346       -2.13301        1.71342
F          7.86871       -1.71119       -0.04547
F          7.93121       -0.27791        1.61402
F          6.80079       -3.58381        1.51559
F          7.87705       -3.07816        3.87549
F          6.97514       -1.06780        3.93532
F          5.69003       -2.84625        3.93623
C          3.59760        6.93081       -1.25951
C          2.20355        6.24241       -1.19757
C          1.61657        5.93815       -2.61270
F          4.09165        6.96320       -0.01297
F          4.41477        6.22329       -2.05180
F          3.45054        8.17862       -1.73153
F          1.36238        7.06389       -0.56489
F          0.35950        5.50986       -2.43903
F          1.63706        7.04663       -3.36486
F          2.33206        4.95751       -3.18148
