87
-129.18755554
P         -1.62443       -0.31864       -0.33273
P          1.62350        0.22144        0.07201
C         -1.23011        0.97445       -1.51820
C          1.45536       -0.79875       -1.40672
C         -0.18223        0.80805       -2.41659
C          0.12891        1.86222       -3.29823
C         -0.62698        3.02194       -3.25890
C         -1.66828        3.16302       -2.36656
C         -1.96491        2.13467       -1.49418
C          2.16618       -1.97446       -1.43799
C          2.03226       -2.84540       -2.50095
C          1.16951       -2.53676       -3.52979
C          0.43760       -1.36190       -3.51869
C          0.59008       -0.46314       -2.44482
Cl         1.03400        0.13979        3.31284
Cl        -1.61743       -1.55001        2.68545
H         -2.24325        4.07423       -2.34383
H         -2.77432        2.23821       -0.79083
H          2.83026       -2.21598       -0.62500
H          2.59186       -3.76623       -2.51999
H         -0.38575        3.82462       -3.93496
H          1.05049       -3.21819       -4.35508
C         -2.08509       -4.34503       -2.38011
C         -1.26294       -4.24095       -1.26641
C         -1.14599       -3.00500       -0.64235
C         -1.83344       -1.91418       -1.12114
C         -2.65505       -2.02704       -2.21791
C         -2.78328       -3.24992       -2.85017
H         -2.17201       -5.29481       -2.87972
C         -0.48078       -5.40907       -0.77901
H         -0.50699       -2.89755        0.21783
H         -3.17749       -1.15620       -2.58202
H         -3.41985       -3.34497       -3.71454
C         -5.32652        0.82911        2.06306
C         -5.37330       -0.25217        1.20533
C         -4.25470       -0.59947        0.47168
C         -3.09979        0.13555        0.60024
C         -3.05012        1.21100        1.45731
C         -4.16678        1.57983        2.19690
H         -6.19362        1.09544        2.64313
H         -6.27865       -0.82936        1.11246
H         -4.27381       -1.44779       -0.19251
H         -2.13465        1.76875        1.56209
C         -4.09564        2.72359        3.14622
C          5.31771       -0.97563        2.45481
C          4.23008       -1.82465        2.40549
C          3.10755       -1.46641        1.68336
C          3.07963       -0.26297        1.01708
C          4.16140        0.58565        1.06830
C          5.30203        0.23842        1.78256
H          6.18978       -1.24827        3.02447
H          4.25178       -2.76227        2.93635
H          2.24487       -2.11325        1.65360
H          4.11998        1.53168        0.55642
C          6.45980        1.17029        1.86168
C          1.57495        4.68923       -0.75427
C          2.44919        3.87336       -1.44560
C          2.47145        2.51427       -1.19270
C          1.62479        1.98695       -0.24626
C          0.76728        2.79969        0.45877
C          0.71694        4.16388        0.20244
H          1.55238        5.74681       -0.95465
H          3.10801        4.29353       -2.18773
H          3.13387        1.85940       -1.73670
H          0.13103        2.37522        1.21610
C         -0.22353        5.03407        0.95913
Pd        -0.14234       -0.36966        1.47015
C          1.25480        1.75984       -4.26776
C         -0.49717       -1.07989       -4.64360
H          1.91485        0.92555       -4.02791
H          0.88221        1.61493       -5.28251
H          1.85846        2.66847       -4.25927
H         -1.21086       -0.29724       -4.38426
H          0.04842       -0.75942       -5.53189
H         -1.06957       -1.97088       -4.90539
H         -0.99826       -6.34600       -0.98971
H          0.49713       -5.44740       -1.26102
H         -0.32238       -5.35271        0.29894
H         -5.08308        3.15113        3.32565
H         -3.68694        2.40332        4.10559
H         -3.45621        3.51707        2.75643
H          7.39859        0.62436        1.96570
H          6.53199        1.78512        0.96331
H          6.36089        1.83762        2.71893
H         -0.39353        5.97890        0.44106
H         -1.19144        4.54575        1.08308
H          0.16988        5.25896        1.95140
