171
-217.84239575
P         -1.63379        0.34258       -0.48444
P          1.70105       -0.24526       -0.29650
C         -0.88614        1.45981       -1.67101
C          1.14426       -1.11361       -1.76099
C          0.05640        0.99451       -2.58108
C          0.71119        1.92795       -3.40742
C          0.36452        3.26665       -3.32877
C         -0.59937        3.70135       -2.44436
C         -1.21598        2.79218       -1.60809
C          1.48723       -2.43469       -1.91288
C          1.03679       -3.14580       -3.00767
C          0.22365       -2.52845       -3.93435
C         -0.13157       -1.19644       -3.79855
C          0.35734       -0.46047       -2.70261
Cl         1.38731        0.37551        2.89166
Cl        -1.72472       -0.62174        2.62414
C         -0.99669       -0.55661       -4.82666
C          1.76323        1.50442       -4.37080
H         -0.86345        4.74526       -2.39730
H         -1.96004        3.12465       -0.90263
H          2.11340       -2.91050       -1.17530
H          1.31554       -4.17932       -3.13337
H          0.86153        3.97272       -3.97252
H         -0.14158       -3.08273       -4.78244
C         -3.65046       -3.34007       -2.16110
C         -2.66175       -3.49359       -1.19604
C         -2.02552       -2.34996       -0.73146
C         -2.38012       -1.11300       -1.20863
C         -3.36275       -0.97631       -2.15803
C         -4.02615       -2.09377       -2.65046
H         -4.14871       -4.21416       -2.53308
H         -1.25527       -2.41938        0.01758
H         -3.62685        0.01109       -2.49888
C         -4.59257        2.38828        2.28475
C         -3.27806        2.83918        2.25227
C         -2.40253        2.22677        1.36591
C         -2.82531        1.19915        0.55982
C         -4.12464        0.76027        0.61227
C         -5.03682        1.34474        1.48069
H         -5.28408        2.85429        2.95966
H         -1.37259        2.53881        1.31998
H         -4.42580       -0.05810       -0.01795
C          4.05369       -2.84541        2.58442
C          4.67350       -1.72901        2.03672
C          3.95249       -0.96504        1.12702
C          2.67348       -1.32024        0.77575
C          2.08006       -2.43140        1.32336
C          2.75682       -3.21418        2.24878
H          4.59448       -3.42599        3.30780
H          4.37266       -0.06873        0.70704
H          1.06430       -2.66967        1.05529
C          4.00806        3.51967       -1.25842
C          2.86047        3.61578       -0.48056
C          2.16626        2.44606       -0.19791
C          2.60394        1.24468       -0.69554
C          3.73393        1.16610       -1.47165
C          4.46877        2.30881       -1.76313
H          4.55980        4.41768       -1.46288
H          1.27984        2.45936        0.41255
H          4.04929        0.20393       -1.84027
Pd        -0.06697       -0.05052        1.21978
C         -0.84832       -5.21179       -1.14930
C         -2.25599       -4.86578       -0.63901
C         -3.22939       -5.97445       -1.08421
C         -2.25493       -4.81856        0.90193
H         -0.50963       -6.16847       -0.75209
H         -0.83985       -5.27474       -2.23716
H         -0.13077       -4.44772       -0.85457
H         -4.24938       -5.74562       -0.77571
H         -3.21473       -6.10199       -2.16633
H         -2.95451       -6.93088       -0.63954
H         -2.00150       -5.79171        1.32207
H         -1.53126       -4.09865        1.27986
H         -3.23686       -4.53318        1.27862
C         -5.82504       -3.26023       -4.02842
C         -5.16851       -1.91481       -3.66249
C         -4.62132       -1.27496       -4.95002
C         -6.24637       -1.00085       -3.05047
H         -6.24147       -3.74626       -3.14624
H         -6.63895       -3.11238       -4.73816
H         -5.10540       -3.93596       -4.49025
H         -4.15939       -0.30964       -4.74640
H         -3.87356       -1.91964       -5.41040
H         -5.41893       -1.11650       -5.67568
H         -7.09043       -0.88285       -3.72975
H         -6.62060       -1.42014       -2.11665
H         -5.84910       -0.00874       -2.84018
C         -3.81937        4.40096        4.18962
C         -2.76292        3.96909        3.15455
C         -2.40420        5.18268        2.27981
C         -1.51184        3.48509        3.91497
H         -3.42406        5.17790        4.84391
H         -4.70705        4.80394        3.70259
H         -4.11867        3.56074        4.81595
H         -2.01061        5.99939        2.88464
H         -1.65248        4.92062        1.53725
H         -3.28267        5.54732        1.74775
H         -0.69842        3.23940        3.23405
H         -1.14923        4.25235        4.59860
H         -1.73807        2.59215        4.49723
C         -7.29222        1.47228        2.65713
C         -6.47982        0.82155        1.52093
C         -6.46574       -0.70300        1.74895
C         -7.16486        1.13864        0.18053
H         -7.37986        2.54886        2.51266
H         -8.30213        1.06384        2.69298
H         -6.82620        1.28896        3.62516
H         -5.93471       -0.94864        2.66835
H         -7.47960       -1.09467        1.82898
H         -5.97429       -1.22570        0.92936
H         -8.19070        0.77081        0.16795
H         -7.18780        2.21383        0.00395
H         -6.63181        0.67657       -0.64873
C          7.04790       -2.52105        2.25030
C          6.08754       -1.34152        2.49211
C          6.05417       -0.99466        3.99149
C          6.61795       -0.11962        1.71805
H          7.05750       -2.79906        1.19652
H          8.06580       -2.26006        2.53954
H          6.75470       -3.39822        2.82561
H          5.36282       -0.17343        4.17977
H          5.72921       -1.84723        4.58676
H          7.04042       -0.69532        4.34568
H          7.62879        0.13324        2.03768
H          6.65047       -0.32460        0.64885
H          5.99157        0.75640        1.88544
C          2.93404       -5.13740        3.90942
C          2.03029       -4.39559        2.90638
C          1.58806       -5.39112        1.81971
C          0.79536       -3.86426        3.65952
H          3.25028       -4.47630        4.71605
H          2.40350       -5.97596        4.36036
H          3.82209       -5.53435        3.41790
H          0.90729       -4.92130        1.11315
H          2.44784       -5.76036        1.26102
H          1.07506       -6.24708        2.25788
H          0.25381       -4.67544        4.14550
H          1.09147       -3.14729        4.42485
H          0.10557       -3.35904        2.98496
C          2.23371        5.96706       -1.10207
C          2.41578        4.97934        0.06544
C          3.48893        5.50937        1.03294
C          1.07954        4.87434        0.82487
H          1.50391        5.58786       -1.81627
H          1.88277        6.93439       -0.74301
H          3.16924        6.13061       -1.63531
H          4.44524        5.64082        0.52783
H          3.19602        6.47206        1.45155
H          3.63939        4.81345        1.85811
H          0.76079        5.85247        1.18475
H          0.29471        4.48618        0.17672
H          1.17006        4.21869        1.69053
C          5.46381        1.58504       -3.95869
C          5.76725        2.19098       -2.57644
C          6.75108        1.27877       -1.82162
C          6.43720        3.56295       -2.78476
H          4.80312        2.23670       -4.52867
H          6.37961        1.45420       -4.53494
H          4.98499        0.61068       -3.86939
H          6.96314        1.68017       -0.83090
H          6.34370        0.27576       -1.70037
H          7.69503        1.19184       -2.35937
H          7.35325        3.46109       -3.36658
H          5.77825        4.24332       -3.32397
H          6.70227        4.01939       -1.83125
H         -0.39793       -0.14142       -5.63802
H          2.20156        0.54675       -4.08661
H         -1.59028        0.25107       -4.39597
H         -1.68624       -1.28101       -5.26058
H          2.56795        2.23921       -4.40617
H          1.35636        1.40701       -5.37800
