111
-148.55738487
P         -2.47448       -2.40726       -0.18728
P         -0.00761       -0.34714       -0.41408
C         -1.64425       -2.13337       -1.77380
C         -0.61238       -1.22460       -1.87163
C         -2.77905       -4.20319        0.11970
C         -2.23711       -4.59977        1.47560
C         -2.06958       -2.81579       -2.89540
H         -2.87057       -3.53215       -2.80984
C         -1.46903       -2.57524       -4.11917
H         -1.80194       -3.10744       -4.99527
C         -0.45019       -1.64786       -4.21954
H          0.01295       -1.45378       -5.17298
C         -0.02328       -0.96872       -3.09250
H          0.76691       -0.23655       -3.15607
Pd        -1.34940       -1.09116        1.32542
Cl        -2.89553       -1.58766        2.87445
Cl        -0.20265        0.28035        2.68877
C         -4.31263       -4.32243       -0.00137
C         -4.21202       -1.76432       -0.15513
H         -2.40997       -5.65856        1.68346
H         -1.16293       -4.41112        1.54551
H         -2.72325       -4.02395        2.26545
H         -4.67129       -5.12613        0.65823
H         -4.58499       -4.63277       -1.02088
H         -4.23184       -0.95378        0.58627
C         -5.02336       -2.98107        0.33496
C         -4.63689       -1.24575       -1.51257
H         -2.26931       -4.75894       -0.67902
H         -6.03024       -2.95373       -0.10650
H         -5.17435       -2.91379        1.42245
H         -5.64403       -0.82315       -1.48333
H         -3.95492       -0.47264       -1.87439
H         -4.64073       -2.05079       -2.24903
C         -1.00303        4.08787       -0.64345
C          0.25963        3.62778       -1.10514
C          0.53974        2.27488       -1.00471
C         -0.40644        1.38946       -0.55868
C         -1.67539        1.80984       -0.25578
C         -2.01745        3.15029       -0.31364
O         -1.22101        5.47375       -0.43374
C          1.32895        4.53696       -1.73482
H          1.51326        1.89764       -1.26914
H         -2.40279        1.07742        0.04939
C         -3.47183        3.53445        0.00524
C          4.47645       -0.89546        0.26193
C          3.72782       -0.01853        1.08641
C          2.36450        0.07997        0.86854
C          1.75351       -0.58863       -0.15940
C          2.49004       -1.36879       -1.01316
C          3.85828       -1.51406       -0.85449
O          5.83420       -1.17549        0.57170
C          4.36136        0.79569        2.22559
H          1.74715        0.66847        1.52317
H          1.97767       -1.87293       -1.81238
C          4.64509       -2.34627       -1.88016
C          0.78275        5.93149       -2.08698
C          2.51558        4.67958       -0.76750
C          1.82481        3.90079       -3.05214
C         -4.43428        2.57856       -0.73391
C         -3.70875        3.40882        1.51966
C         -3.81336        4.96205       -0.45506
C         -0.81638        5.90195        0.85602
H          1.52629        6.52096       -2.62294
H         -0.10372        5.84958       -2.71495
H          0.50742        6.48493       -1.19248
H          2.20086        5.11161        0.18071
H          2.96547        3.70962       -0.55947
H          3.28770        5.32185       -1.19028
H          2.32343        2.94851       -2.87909
H          0.99104        3.72545       -3.73143
H          2.53712        4.55415       -3.55531
H         -4.35564        1.55937       -0.36040
H         -5.46986        2.89075       -0.60133
H         -4.22064        2.56629       -1.80232
H         -4.74095        3.64787        1.77396
H         -3.50441        2.39486        1.86258
H         -3.06109        4.08280        2.07668
H         -4.86989        5.18170       -0.30332
H         -3.24108        5.70227        0.09910
H         -3.58768        5.08880       -1.51328
H          0.23994        5.68544        1.00788
H         -0.98207        6.97562        0.94714
H         -1.39323        5.38285        1.61955
C          6.01669       -2.29131        1.43438
C          5.79916        1.21572        1.87115
C          3.56263        2.09472        2.48117
C          4.35238       -0.04044        3.51418
C          6.07386       -1.80100       -2.05807
C          4.68980       -3.81135       -1.42047
C          3.96692       -2.28713       -3.26843
H          6.22793        1.84322        2.65209
H          6.44721        0.35117        1.75119
H          5.81531        1.77734        0.93765
H          4.08092        2.73321        3.19615
H          3.43634        2.66013        1.55896
H          2.57675        1.88785        2.89477
H          4.78311        0.51789        4.34491
H          3.33373       -0.31707        3.78527
H          4.92328       -0.95773        3.39417
H          6.64811       -1.88356       -1.13879
H          6.60981       -2.35096       -2.83125
H          6.05041       -0.74989       -2.34376
H          5.17906       -3.90733       -0.45431
H          3.68232       -4.21513       -1.32285
H          5.23311       -4.42856       -2.13554
H          3.00855       -2.80431       -3.27235
H          4.59013       -2.76536       -4.02377
H          3.80197       -1.25475       -3.57587
H          5.05318       -2.72450        1.70571
H          6.62664       -3.04403        0.93527
H          6.54036       -1.97414        2.33604
