75
-122.81783433
P          1.79714       -0.58931       -0.06395
C          1.70775       -1.54986       -1.58339
C          1.50764       -0.93652       -2.79872
C          1.52839       -1.68393       -3.96130
C          1.74577       -3.04588       -3.89865
C          1.93847       -3.66052       -2.67734
C          1.92142       -2.90795       -1.51668
H          2.08746       -3.37159       -0.55708
H          2.10468       -4.72400       -2.62733
H          1.75770       -3.63105       -4.80362
H          1.36725       -1.20444       -4.91277
H          1.32036        0.12343       -2.83133
C          3.09941       -1.33778        0.92875
C          2.81480       -1.95029        2.12747
C          3.83053       -2.54180        2.85570
C          5.12380       -2.52594        2.37259
C          5.40251       -1.92614        1.16077
C          4.38423       -1.33486        0.43490
H          4.58272       -0.88182       -0.52391
H          6.41006       -1.92090        0.77859
H          5.91613       -2.98585        2.94038
H          3.61177       -3.01342        3.79962
H          1.80087       -1.96256        2.49308
C          2.19018        1.12841       -0.44119
C          3.34109        1.77236       -0.05074
C          3.51198        3.12694       -0.30135
C          2.48145        3.82915       -0.92572
C          1.31519        3.20135       -1.30281
C          1.16770        1.82532       -1.06648
O         -0.01571        1.15091       -1.40758
C         -1.20713        1.81831       -1.08248
C         -1.36607        3.18992       -1.33702
C         -2.54936        3.80716       -0.99693
C         -3.58448        3.10073       -0.38508
C         -3.39672        1.75499       -0.10068
C         -2.22761        1.12229       -0.45337
P         -1.81831       -0.57057        0.00328
C         -3.14066       -1.28186        0.99603
C         -4.38532       -1.40441        0.42104
C         -5.42631       -1.95944        1.14353
C         -5.21020       -2.39490        2.43570
C         -3.95711       -2.28081        3.00409
C         -2.91878       -1.72563        2.27935
H         -1.93766       -1.63075        2.71495
H         -3.78772       -2.62150        4.01233
H         -6.02023       -2.82634        3.00084
H         -6.40257       -2.05299        0.69696
H         -4.53461       -1.07162       -0.59445
C         -1.66094       -1.60593       -1.45407
C         -1.80036       -1.06918       -2.71319
C         -1.76143       -1.89630       -3.82051
C         -1.58492       -3.25609       -3.65681
C         -1.44427       -3.78981       -2.39097
C         -1.48532       -2.96003       -1.28475
H         -1.39264       -3.36202       -0.28790
H         -1.30279       -4.85043       -2.26371
H         -1.55006       -3.90143       -4.51928
H         -1.86505       -1.47899       -4.80854
H         -1.93472       -0.00560       -2.82370
Pd         0.01667       -0.03685        1.40313
Cl        -1.53316        1.03791        2.64854
Cl         1.59625        0.84361        2.75165
H         -4.15863        1.20873        0.42663
C         -4.83635        3.79121        0.02363
H         -4.75357        4.16768        1.04394
H         -5.68988        3.11323       -0.01700
H         -5.05225        4.63617       -0.63147
H         -2.66532        4.85852       -1.19260
S         -0.02010        4.08494       -2.06933
H          2.58787        4.88463       -1.10372
C          4.74306        3.82810        0.15036
H          4.10128        1.22876        0.48117
H          4.95583        4.69478       -0.47677
H          4.63412        4.17432        1.17890
H          5.60949        3.16681        0.10761
