171
-217.84506325
P         -1.59219        0.36094       -0.36579
P          1.67162       -0.30103       -0.30045
C         -0.87051        1.42890       -1.61510
C          1.03784       -1.19645       -1.72016
C         -0.01143        0.91050       -2.57707
C          0.60776        1.79864       -3.47686
C          0.31704        3.15122       -3.40550
C         -0.55946        3.64091       -2.46093
C         -1.14616        2.77369       -1.56123
C          1.32365       -2.53556       -1.82478
C          0.81274       -3.27395       -2.87403
C         -0.00355       -2.66450       -3.80311
C         -0.30241       -1.31501       -3.71635
C          0.24564       -0.55406       -2.66530
Cl         1.56117        0.36704        2.87748
Cl        -1.62923       -0.39766        2.80189
C         -1.19722       -0.70193       -4.73634
C          1.54873        1.30320       -4.51749
H         -0.78356        4.69438       -2.42104
H         -1.82685        3.14889       -0.81481
H          1.95037       -3.00548       -1.08388
H          1.04710       -4.32216       -2.96252
H          0.78598        3.82431       -4.10329
H         -0.42081       -3.23968       -4.61247
C         -3.68115       -3.32472       -1.93966
C         -2.72604       -3.47367       -0.94100
C         -2.06567       -2.33451       -0.50000
C         -2.35920       -1.10793       -1.04068
C         -3.30500       -0.97556       -2.02747
C         -3.99061       -2.08991       -2.49704
H         -4.21845       -4.18809       -2.28385
H         -1.32981       -2.39835        0.28345
H         -3.51554        0.00881       -2.41030
C         -4.64962        2.56234        2.16992
C         -3.32049        2.96770        2.22337
C         -2.40446        2.30413        1.41801
C         -2.80274        1.26612        0.61328
C         -4.11614        0.86980        0.58532
C         -5.07026        1.51325        1.36054
H         -5.37256        3.07053        2.77824
H         -1.36538        2.58682        1.43189
H         -4.40061        0.04102       -0.03884
C          4.20294       -2.89555        2.43059
C          2.85761       -3.20047        2.27356
C          2.11507       -2.42220        1.39435
C          2.69721       -1.36976        0.72947
C          4.02547       -1.07256        0.91252
C          4.81054       -1.83931        1.76478
H          4.79124       -3.48712        3.10768
H          1.06603       -2.61181        1.24568
H          4.43924       -0.22150        0.40214
C          3.93081        3.46213       -1.39101
C          2.84088        3.55261       -0.53426
C          2.16429        2.38157       -0.21793
C          2.55714        1.18447       -0.76173
C          3.62760        1.11301       -1.61953
C          4.34829        2.25647       -1.94336
H          4.47300        4.36016       -1.61933
H          1.32617        2.39173        0.45714
H          3.90823        0.15625       -2.02764
Pd        -0.00411        0.01008        1.30695
C         -0.94119       -5.19942       -0.63568
C         -2.39676       -4.83005       -0.30283
C         -3.31734       -5.94924       -0.82630
C         -2.57802       -4.73004        1.22402
H         -0.81564       -5.32258       -1.71087
H         -0.25356       -4.42112       -0.30861
H         -0.65203       -6.13292       -0.15329
H         -3.08116       -6.89906       -0.34663
H         -4.36352       -5.72485       -0.61887
H         -3.19861       -6.08592       -1.90098
H         -3.60361       -4.45724        1.47168
H         -2.35526       -5.68119        1.70716
H         -1.92203       -3.97583        1.65545
C         -6.45160       -2.34692       -2.85934
C         -5.11717       -1.98066       -3.53466
C         -4.84751       -2.94809       -4.70296
C         -5.23183       -0.55183       -4.10157
H         -6.43360       -3.36821       -2.48026
H         -6.65322       -1.68322       -2.01884
H         -7.28083       -2.26455       -3.56173
H         -3.88872       -2.73280       -5.17265
H         -4.82957       -3.98399       -4.36715
H         -5.62171       -2.86183       -5.46524
H         -5.48111        0.16368       -3.31838
H         -4.29973       -0.23861       -4.57059
H         -6.01647       -0.49723       -4.85607
C         -3.93960        4.58168        4.09288
C         -2.83681        4.11274        3.12426
C         -2.41720        5.29979        2.24042
C         -1.63282        3.63426        3.96064
H         -4.28813        3.75787        4.71555
H         -3.56592        5.36294        4.75470
H         -4.79191        4.99215        3.55197
H         -2.04628        6.12708        2.84518
H         -1.63012        5.01048        1.54610
H         -3.26147        5.66055        1.65320
H         -1.89766        2.75423        4.54627
H         -0.78497        3.37106        3.33007
H         -1.30202        4.41184        4.64874
C         -7.43515        1.83959        2.24710
C         -6.52790        1.03576        1.29641
C         -6.59214       -0.45009        1.69890
C         -7.05141        1.20446       -0.14198
H         -8.46384        1.48345        2.19271
H         -7.10561        1.73942        3.28109
H         -7.43886        2.89752        1.98534
H         -7.61968       -0.81313        1.68918
H         -6.01375       -1.07213        1.01668
H         -6.19170       -0.59391        2.70218
H         -6.46214        0.62012       -0.84748
H         -8.08801        0.87750       -0.22160
H         -7.00118        2.24861       -0.45008
C          0.71267       -4.43517        2.86102
C          2.23195       -4.33766        3.09340
C          2.47040       -4.07550        4.59262
C          2.87965       -5.67247        2.68555
H          0.49414       -4.66406        1.81971
H          0.27645       -5.22696        3.46982
H          0.21547       -3.50182        3.12513
H          3.53300       -4.06118        4.83115
H          2.04846       -3.11391        4.88453
H          2.00371       -4.84857        5.20279
H          2.72811       -5.86448        1.62339
H          3.95263       -5.66415        2.87428
H          2.44770       -6.50272        3.24405
C          7.14565       -2.76491        1.73362
C          6.28834       -1.52045        2.03142
C          6.45539       -1.11279        3.50635
C          6.78811       -0.36552        1.14350
H          8.20400       -2.55444        1.88681
H          6.87670       -3.59853        2.38101
H          7.01161       -3.08579        0.70071
H          5.83981       -0.24326        3.73609
H          6.15620       -1.91925        4.17490
H          7.49256       -0.86161        3.72757
H          6.68205       -0.61722        0.08914
H          6.23407        0.55213        1.34036
H          7.84198       -0.15997        1.33071
C          2.22323        5.92886       -1.06846
C          2.44372        4.90875        0.06436
C          3.56951        5.39745        0.99260
C          1.14183        4.80467        0.88195
H          1.46109        5.57506       -1.76160
H          1.89683        6.88923       -0.66977
H          3.13731        6.09938       -1.63555
H          3.74524        4.67982        1.79383
H          4.50358        5.52355        0.44608
H          3.31402        6.35503        1.44598
H          0.85142        5.77943        1.27350
H          0.32444        4.43717        0.26265
H          1.26237        4.13254        1.73120
C          6.27513        3.51451       -3.03832
C          5.58466        2.14953       -2.85040
C          5.16967        1.62161       -4.23463
C          6.59614        1.17922       -2.21420
H          5.60355        4.23307       -3.50786
H          6.60627        3.92149       -2.08304
H          7.15278        3.41864       -3.67752
H          6.03863        1.50044       -4.88127
H          4.67430        0.65450       -4.15774
H          4.48716        2.31669       -4.72152
H          6.17543        0.17915       -2.11789
H          7.49875        1.10268       -2.82021
H          6.88509        1.52344       -1.22149
H         -2.09001       -1.31057       -4.88005
H          2.09301        0.42383       -4.17026
H         -0.69224       -0.61869       -5.69968
H         -1.52392        0.29481       -4.43718
H          2.28071        2.06873       -4.77533
H          1.01601        1.03367       -5.43005
