171
-217.84124178
P         -1.69659        0.64933        0.20830
P          1.51828       -0.18912       -0.28344
C         -0.97240        1.70332       -1.06630
C          0.65830       -0.98971       -1.64783
C         -0.32147        1.22589       -2.19786
C          0.28814        2.15036       -3.06712
C          0.21061        3.50347       -2.78353
C         -0.43787        3.95817       -1.65572
C         -1.02257        3.05025       -0.79419
C          0.85989       -2.32422       -1.89903
C          0.19406       -2.94266       -2.93880
C         -0.67762       -2.21467       -3.72208
C         -0.89761       -0.86715       -3.48531
C         -0.19547       -0.23419       -2.44172
Cl         2.07231        1.36392        2.59130
Cl        -0.90666        0.71006        3.43873
C         -1.84765       -0.10558       -4.34202
C          1.03486        1.70923       -4.27722
H         -0.48097        5.01346       -1.44120
H         -1.51406        3.38887        0.10611
H          1.54745       -2.88152       -1.28607
H          0.35248       -3.99058       -3.13459
H          0.67905        4.20377       -3.45449
H         -1.19172       -2.69274       -4.53834
C         -2.81890       -3.64686       -0.70797
C         -1.79383       -3.41935        0.20315
C         -1.42921       -2.10258        0.45334
C         -2.07129       -1.06618       -0.18383
C         -3.09407       -1.31152       -1.06656
C         -3.49314       -2.61268       -1.34434
H         -3.11955       -4.65543       -0.92019
H         -0.64792       -1.88652        1.16007
H         -3.59031       -0.47539       -1.52660
C         -5.64895        2.52205        1.39699
C         -4.79405        2.09290        2.40568
C         -3.58063        1.53572        2.03075
C         -3.23899        1.42120        0.70847
C         -4.09113        1.85711       -0.27648
C         -5.32053        2.41638        0.05068
H         -6.59832        2.95009        1.65855
H         -2.88432        1.19608        2.77578
H         -3.78345        1.76201       -1.30400
C          4.03105       -3.33651        1.84542
C          4.30056       -3.01400        0.52257
C          3.51809       -2.03657       -0.07920
C          2.49685       -1.42576        0.60775
C          2.25066       -1.76199        1.91850
C          3.02282       -2.71444        2.56856
H          4.62539       -4.09100        2.32721
H          3.69790       -1.75047       -1.09969
H          1.45658       -1.27249        2.44942
C          4.31474        2.91864       -2.02499
C          3.55190        3.25697       -0.91456
C          2.71935        2.28389       -0.37903
C          2.63757        1.04110       -0.95368
C          3.37747        0.73260       -2.06925
C          4.24336        1.66753       -2.62487
H          4.99432        3.64821       -2.42482
H          2.13681        2.48415        0.50156
H          3.25711       -0.23796       -2.51784
Pd         0.23567        0.64979        1.50727
C         -1.31778       -4.32790        2.48650
C         -1.11480       -4.55990        0.97777
C          0.38836       -4.58579        0.65402
C         -1.71060       -5.93352        0.61341
H         -0.87517       -5.13467        3.07005
H         -0.86171       -3.39255        2.80654
H         -2.37931       -4.28045        2.72844
H          0.54929       -4.76732       -0.40790
H          0.86120       -3.64073        0.91235
H          0.89570       -5.37512        1.20809
H         -1.22321       -6.72772        1.17888
H         -2.77562       -5.97252        0.84147
H         -1.57361       -6.15223       -0.44548
C         -5.34007       -1.63511       -2.79841
C         -4.66989       -2.92358       -2.28087
C         -5.72786       -3.73970       -1.51409
C         -4.16397       -3.73466       -3.48619
H         -6.18066       -1.87101       -3.45081
H         -5.72129       -1.03425       -1.97285
H         -4.63987       -1.02885       -3.37152
H         -6.07368       -3.19252       -0.63725
H         -6.59219       -3.94749       -2.14465
H         -5.32655       -4.69438       -1.17648
H         -4.98307       -3.98306       -4.16087
H         -3.42612       -3.16573       -4.04954
H         -3.69737       -4.66636       -3.16827
C         -6.51800        2.85522        4.11771
C         -5.13641        2.21004        3.89761
C         -4.07308        3.08006        4.59400
C         -5.14615        0.80427        4.52650
H         -7.30649        2.26111        3.65610
H         -6.74349        2.93235        5.18129
H         -6.55213        3.86119        3.69982
H         -4.03231        4.07176        4.14405
H         -4.29839        3.19836        5.65364
H         -3.08202        2.63521        4.51240
H         -4.17044        0.32697        4.44290
H         -5.40405        0.85169        5.58429
H         -5.87501        0.16496        4.02881
C         -6.61112        4.38827       -0.81038
C         -6.30928        2.89338       -1.02255
C         -7.61017        2.07759       -0.91040
C         -5.73887        2.70889       -2.44312
H         -7.29423        4.76034       -1.57378
H         -7.06955        4.56680        0.16150
H         -5.69493        4.97631       -0.86157
H         -7.40951        1.01408       -1.03912
H         -8.07987        2.21365        0.06307
H         -8.32785        2.38055       -1.67262
H         -6.44852        3.05779       -3.19316
H         -4.81694        3.27570       -2.57234
H         -5.53142        1.65928       -2.65035
C          5.58971       -3.19449       -1.66460
C          5.42301       -3.73963       -0.23209
C          5.08520       -5.23920       -0.31495
C          6.75346       -3.54442        0.51831
H          5.83221       -2.13202       -1.65264
H          6.39672       -3.71112       -2.18395
H          4.67993       -3.33614       -2.24783
H          4.13602       -5.39149       -0.82873
H          5.85608       -5.78373       -0.85995
H          5.00225       -5.68079        0.67755
H          6.70984       -3.96654        1.52150
H          7.57414       -4.02871       -0.01062
H          6.99018       -2.48460        0.61091
C          1.68954       -2.21468        4.68045
C          2.80255       -3.07279        4.04539
C          4.10595       -2.82328        4.82710
C          2.40616       -4.55538        4.15632
H          0.73385       -2.37554        4.18379
H          1.55863       -2.46734        5.73239
H          1.93191       -1.15359        4.62354
H          4.41559       -1.78254        4.73361
H          3.97351       -3.04242        5.88643
H          4.91745       -3.44869        4.45721
H          1.49082       -4.75132        3.59986
H          3.18514       -5.20395        3.75706
H          2.23580       -4.83730        5.19518
C          3.30796        5.70792       -1.38593
C          3.65268        4.66316       -0.30843
C          5.08614        4.89296        0.20222
C          2.67595        4.84304        0.87108
H          4.00136        5.65771       -2.22450
H          2.30271        5.54322       -1.77272
H          3.35111        6.71766       -0.97814
H          5.34996        4.14836        0.95304
H          5.81057        4.82195       -0.60832
H          5.18600        5.87943        0.65462
H          2.74219        5.85171        1.27829
H          1.64567        4.68119        0.55464
H          2.90218        4.14715        1.67862
C          6.59995        1.18328       -3.29316
C          5.15754        1.32346       -3.81036
C          5.09794        2.43829       -4.87308
C          4.74075       -0.00108       -4.48071
H          6.94417        2.11223       -2.83931
H          6.66402        0.39948       -2.53855
H          7.28366        0.93021       -4.10328
H          5.71701        2.18579       -5.73386
H          4.07850        2.58494       -5.22722
H          5.45736        3.38792       -4.47960
H          3.70550        0.03979       -4.81835
H          5.36542       -0.20802       -5.34954
H          4.84743       -0.84186       -3.79612
H         -2.30226        0.71824       -3.78937
H          2.00492        2.20400       -4.32894
H         -2.65353       -0.74638       -4.70220
H         -1.34011        0.31066       -5.21299
H          0.48483        1.95485       -5.18674
H          1.21474        0.63369       -4.26965
