64
-97.22268113
Cl        -1.31764       -0.31178       -2.86616
Cl         1.83728       -0.67179       -2.96650
P          1.94657       -0.62876        0.31262
C          2.16257       -2.37037        0.90130
C          3.73124       -0.12241        0.18603
P         -1.28911       -0.33420        0.35468
C          1.14404        0.43737        1.56756
C         -0.29587        0.60225        1.57437
C         -0.63739        1.59213        2.58430
C          0.60440        2.07053        3.16639
C          1.70546        1.34694        2.55404
H         -1.64499        1.90466        2.86477
H          0.69251        2.81551        3.96047
Pd         0.29295       -0.67742       -1.34408
H          2.76638        1.46944        2.78075
C         -5.17851        1.67121       -0.92630
C         -4.26975        2.38409       -0.16993
C         -3.08821        1.78770        0.22915
C         -2.81588        0.48760       -0.13058
C         -3.72332       -0.22684       -0.87910
C         -4.90778        0.36468       -1.28106
H         -6.09947        2.13489       -1.24030
H         -4.47940        3.40395        0.10829
H         -2.37421        2.33577        0.81788
H         -3.49624       -1.24496       -1.15370
H         -5.61473       -0.19329       -1.87280
C         -2.33465       -4.44958        1.96533
C         -1.96569       -4.30538        0.64198
C         -1.65414       -3.05230        0.14634
C         -1.71092       -1.95794        0.97819
C         -2.08410       -2.09301        2.29539
C         -2.39668       -3.34556        2.79328
H         -2.57731       -5.42587        2.35226
H         -1.92136       -5.16648       -0.00445
H         -1.37416       -2.92153       -0.88671
H         -2.12121       -1.21970        2.92758
H         -2.68642       -3.45834        3.82509
C          4.20649        0.00178       -1.24498
H          3.82658        0.84001        0.70574
C          4.45510       -1.24486        0.95588
H          4.55535       -0.96854        2.01578
C          3.68664       -2.58867        0.84404
H          5.48212       -1.35183        0.57717
C          1.58733       -2.52996        2.29212
H          1.63767       -3.01874        0.18639
H          3.99103       -3.27809        1.64477
H          3.95957       -3.08783       -0.09709
H          0.52469       -2.28299        2.31465
H          1.70392       -3.55181        2.66080
H          2.09158       -1.86286        2.99413
H          5.26945        0.24784       -1.29347
H          4.06059       -0.93902       -1.77812
H          3.66159        0.77382       -1.78977
Fe         0.60765        2.33892        1.13335
C          1.28228        2.40288       -0.78833
C          2.01629        3.34621        0.03332
C          1.06018        4.27770        0.60696
C         -0.26416        3.88996        0.14943
C         -0.12466        2.74680       -0.73547
H          1.70990        1.62063       -1.41774
H          3.10015        3.37353        0.16711
H          1.29484        5.11994        1.26171
H         -1.19543        4.41463        0.37580
H         -0.92102        2.24027       -1.28492
