58
-89.86603973
P          1.80911       -0.19758        0.68276
C          1.80325        1.60435        0.77408
C          1.72373        2.29252        1.96419
C          1.67108        3.67434        1.95681
C          1.70140        4.36110        0.75940
C          1.78904        3.66993       -0.43204
C          1.84018        2.28838       -0.42076
H          1.89345        1.72924       -1.34229
H          1.70490        1.75684        2.89791
C          3.33424       -0.78868       -0.05746
C          4.38958        0.07022       -0.26293
C          5.55702       -0.40010       -0.83643
C          5.65797       -1.72865       -1.19968
C          4.59645       -2.58693       -0.99059
C          3.43010       -2.11357       -0.41591
H          2.58845       -2.76905       -0.25453
H          4.29548        1.10512        0.02325
C          1.65957       -1.01538        2.33283
C          0.24481       -1.41790        2.71659
C         -0.76608       -0.28433        2.59958
P         -1.50903       -0.27935        0.92095
C         -2.34895        1.28060        0.62162
C         -1.62466        2.44857        0.67681
C         -2.24554        3.65801        0.42460
C         -3.59086        3.68783        0.11513
C         -4.31365        2.51248        0.05422
C         -3.68819        1.30494        0.30680
H         -4.23678        0.37906        0.25000
H         -0.57154        2.40894        0.89792
C         -2.66670       -1.65412        0.80537
C         -3.62252       -1.80053        1.78619
C         -4.51653       -2.85490        1.72693
C         -4.44838       -3.75723        0.68425
C         -3.49282       -3.60484       -0.30039
C         -2.60230       -2.54881       -0.23891
H         -1.87008       -2.40826       -1.01626
H         -3.67248       -1.08553        2.59203
Pd         0.02497       -0.32027       -0.81864
Cl         1.53397       -0.60718       -2.45628
Cl        -1.70689       -0.24536       -2.24314
H         -1.59012       -0.39263        3.30835
H         -0.30727        0.68545        2.79326
H         -0.08862       -2.25201        2.08153
H          0.24748       -1.82114        3.74184
H          2.32014       -1.88593        2.31458
H          2.08346       -0.33071        3.06882
H          1.60507        4.21505        2.88673
H          1.81148        4.20289       -1.36828
H          6.38439        0.27029       -1.00173
H          4.67337       -3.62261       -1.27812
H         -1.67715        4.57266        0.46341
H         -5.36195        2.53441       -0.19448
H         -5.26477       -2.97055        2.49381
H         -3.44437       -4.30302       -1.11987
H          1.65797        5.43805        0.75496
H          6.56599       -2.09584       -1.64954
H         -4.07635        4.62917       -0.08453
H         -5.14447       -4.57878        0.63657
