58
-89.86908249
P          1.88446       -0.17858        0.45809
C          1.54290        1.58215        0.63894
C          1.13228        2.27881       -0.47511
C          0.84117        3.62742       -0.38083
C          0.96789        4.27362        0.83180
C          1.39233        3.57604        1.94467
C          1.68489        2.22819        1.84573
H          2.03335        1.68586        2.70860
H          1.03953        1.76381       -1.41844
C          3.46506       -0.42153       -0.35884
C          4.20022        0.66806       -0.76811
C          5.41542        0.48111       -1.40177
C          5.88546       -0.79831       -1.62286
C          5.14406       -1.88883       -1.21300
C          3.92951       -1.69812       -0.57832
H          3.33217       -2.54136       -0.26940
H          3.81988        1.66108       -0.59221
C          1.87338       -1.07709        2.06857
C          0.49038       -1.47644        2.56471
C         -0.51618       -0.33180        2.59523
P         -1.38960       -0.16384        0.98006
C         -1.95298        1.51530        0.67982
C         -2.02680        2.44036        1.69659
C         -2.46348        3.72436        1.42432
C         -2.82789        4.07115        0.13803
C         -2.76364        3.13655       -0.87626
C         -2.32735        1.85442       -0.59987
H         -2.27839        1.10503       -1.37350
H         -1.74437        2.15920        2.69787
C         -2.78005       -1.30061        0.99011
C         -4.03377       -0.81450        1.28438
C         -5.11853       -1.67296        1.30185
C         -4.93820       -3.01362        1.02450
C         -3.67843       -3.49685        0.73048
C         -2.59558       -2.63629        0.71491
H         -1.61013       -3.00036        0.47301
H         -4.15835        0.23585        1.49476
Pd         0.01024       -0.77357       -0.77063
Cl         1.35703       -1.63588       -2.34126
Cl        -1.84540       -1.08260       -2.00429
H         -1.29772       -0.49482        3.34183
H         -0.02986        0.61083        2.84537
H          0.08992       -2.28061        1.93208
H          0.58295       -1.92329        3.56704
H          2.51134       -1.95577        1.94835
H          2.37621       -0.43404        2.79225
H          0.50930        4.16934       -1.25111
H          1.49628        4.08146        2.89078
H          5.99194        1.33258       -1.72412
H          5.50703       -2.88759       -1.39186
H         -2.51587        4.45395        2.21566
H         -3.05213        3.40362       -1.87953
H         -6.10169       -1.29474        1.52901
H         -3.53853       -4.54205        0.50853
H          0.73519        5.32312        0.90966
H          6.83068       -0.94613       -2.11929
H         -3.16520        5.07260       -0.07403
H         -5.78252       -3.68352        1.03473
