171
-217.84575911
P         -1.60421        0.34840       -0.48310
P          1.62114       -0.37594       -0.17675
C         -0.79203        1.32465       -1.74782
C          1.04192       -1.34250       -1.57531
C          0.09297        0.72198       -2.63413
C          0.76804        1.53108       -3.56871
C          0.50426        2.89046       -3.60252
C         -0.39915        3.46249       -2.73176
C         -1.04056        2.67404       -1.79662
C          1.28227       -2.69519       -1.56505
C          0.79490       -3.49654       -2.57815
C          0.04770       -2.93395       -3.59072
C         -0.20957       -1.57319       -3.61758
C          0.31550       -0.75056       -2.60280
Cl         1.22982        0.11517        3.04484
Cl        -1.90706       -0.63576        2.61991
C         -1.02479       -1.00593       -4.72575
C          1.74905        0.95363       -4.52809
H         -0.60127        4.52011       -2.77762
H         -1.74055        3.11137       -1.10277
H          1.85427       -3.12819       -0.76064
H          0.99192       -4.55615       -2.57160
H          1.01781        3.50331       -4.32407
H         -0.34786       -3.55573       -4.37613
C         -3.85035       -3.22011       -2.11539
C         -2.86169       -3.42707       -1.16131
C         -2.18196       -2.31628       -0.67791
C         -2.47002       -1.06393       -1.15917
C         -3.43712       -0.87700       -2.11617
C         -4.16447       -1.95649       -2.60254
H         -4.39575       -4.07209       -2.47496
H         -1.42415       -2.41661        0.07972
H         -3.63397        0.12036       -2.47321
C         -4.41164        2.76295        2.14885
C         -3.05330        3.05748        2.16730
C         -2.22130        2.34395        1.31474
C         -2.72813        1.36273        0.49831
C         -4.07166        1.08107        0.49976
C         -4.94344        1.77607        1.32714
H         -5.06926        3.30641        2.79928
H         -1.16129        2.53418        1.31084
H         -4.44214        0.29667       -0.13615
C          4.41483       -2.78011        2.47403
C          3.07561       -3.14652        2.41349
C          2.23630       -2.41559        1.58160
C          2.72449       -1.35917        0.85303
C          4.04952       -1.00960        0.93067
C          4.92620       -1.71573        1.74157
H          5.06752       -3.33449        3.12178
H          1.18754       -2.64851        1.51536
H          4.40389       -0.16628        0.36478
C          3.83778        3.42851       -1.19465
C          2.78563        3.49101       -0.28868
C          2.08677        2.31980       -0.02728
C          2.44439        1.14460       -0.63962
C          3.48895        1.09772       -1.52987
C          4.21213        2.24752       -1.82415
H          4.39836        4.31882       -1.40805
H          1.26521        2.31591        0.66790
H          3.74372        0.15137       -1.97634
Pd        -0.16417       -0.11988        1.29991
C         -1.38670       -4.86169        0.33166
C         -2.57749       -4.84433       -0.64596
C         -2.24395       -5.76684       -1.83328
C         -3.82262       -5.37173        0.08899
H         -1.17801       -5.87671        0.66935
H         -0.48503       -4.47874       -0.14516
H         -1.59506       -4.25751        1.21442
H         -1.38925       -5.38399       -2.38954
H         -1.99988       -6.77181       -1.48941
H         -3.08270       -5.84723       -2.52346
H         -3.64929       -6.37351        0.48164
H         -4.07981       -4.72074        0.92442
H         -4.68385       -5.41721       -0.57673
C         -6.06178       -3.01841       -3.93001
C         -5.29672       -1.71861       -3.61378
C         -4.71073       -1.16553       -4.92424
C         -6.29388       -0.70148       -3.02762
H         -5.40554       -3.76064       -4.38406
H         -6.49716       -3.44603       -3.02696
H         -6.87486       -2.82751       -4.63036
H         -4.15856       -0.24245       -4.75117
H         -4.03242       -1.88761       -5.37701
H         -5.50052       -0.95246       -5.64444
H         -6.68412       -1.05141       -2.07205
H         -5.82026        0.26577       -2.86607
H         -7.13709       -0.54824       -3.70091
C         -1.75325        5.19620        2.30687
C         -2.43982        4.08910        3.12472
C         -1.40286        3.38520        4.02182
C         -3.50549        4.73812        4.02842
H         -2.46840        5.69252        1.65117
H         -1.31146        5.94911        2.95938
H         -0.95977        4.78598        1.68620
H         -0.59913        2.94587        3.43272
H         -0.95503        4.08569        4.72627
H         -1.87024        2.58275        4.59199
H         -4.25364        5.26560        3.43699
H         -4.01014        3.98968        4.63910
H         -3.04987        5.46189        4.70412
C         -6.62017       -0.08506        1.52151
C         -6.43959        1.43080        1.30677
C         -7.02730        1.83509       -0.05613
C         -7.21190        2.17018        2.41650
H         -6.16035       -0.39733        2.45889
H         -7.67657       -0.35039        1.55823
H         -6.16393       -0.66089        0.71744
H         -8.08806        1.59158       -0.11346
H         -6.91575        2.90651       -0.22160
H         -6.51914        1.31859       -0.86865
H         -7.16457        3.25003        2.27777
H         -8.26407        1.88572        2.41028
H         -6.80916        1.92877        3.40005
C          3.34099       -5.58103        2.96859
C          2.55628       -4.29555        3.28892
C          1.05976       -4.56557        3.04088
C          2.74483       -3.92236        4.77042
H          2.97316       -6.41950        3.55980
H          3.23935       -5.84072        1.91497
H          4.40228       -5.46346        3.18376
H          0.70597       -5.38911        3.66088
H          0.45649       -3.69023        3.28122
H          0.88281       -4.83537        2.00051
H          2.36607       -4.70875        5.42297
H          3.79656       -3.76760        5.00839
H          2.21040       -3.00164        5.00407
C          7.01816       -1.39536        0.39912
C          6.39819       -1.28463        1.80446
C          7.21067       -2.16765        2.77046
C          6.47774        0.17512        2.29046
H          8.06852       -1.10491        0.41133
H          6.95424       -2.41860        0.02954
H          6.50261       -0.75095       -0.31174
H          8.25228       -1.84825        2.80279
H          6.81531       -2.10610        3.78420
H          7.19548       -3.21084        2.45531
H          7.51357        0.50504        2.36752
H          5.96397        0.84992        1.60662
H          6.01536        0.27910        3.27178
C          1.07129        5.30504       -0.25127
C          2.36891        4.79934        0.39834
C          3.45244        5.88630        0.25603
C          2.13754        4.55112        1.90259
H          0.71783        6.21573        0.23189
H          1.23056        5.52206       -1.30721
H          0.28569        4.55422       -0.18155
H          3.17217        6.78525        0.80502
H          4.40716        5.53888        0.65068
H          3.59208        6.17259       -0.78600
H          1.88704        5.47893        2.41662
H          1.32131        3.85185        2.07396
H          3.03345        4.13949        2.36674
C          5.62634        0.85573       -3.42009
C          5.43959        2.22954       -2.74640
C          6.69474        2.53634       -1.90889
C          5.27963        3.29484       -3.84773
H          5.79929        0.07463       -2.68034
H          4.75162        0.58396       -4.00959
H          6.48587        0.86762       -4.09015
H          7.59164        2.51859       -2.52777
H          6.62748        3.51955       -1.44431
H          6.81735        1.80012       -1.11469
H          5.22216        4.29786       -3.42718
H          6.12508        3.27320       -4.53519
H          4.37234        3.12285       -4.42528
H         -1.50926       -0.07558       -4.42604
H          2.08793       -0.03263       -4.20814
H         -1.80589       -1.70441       -5.02671
H         -0.40680       -0.80096       -5.60069
H          2.62820        1.59240       -4.61384
H          1.31117        0.85580       -5.52230
