58
-89.86969276
P          1.53629       -0.02811        0.74569
C          2.91036        1.12953        0.70789
C          2.68861        2.48345        0.81578
C          3.75852        3.35960        0.78457
C          5.04365        2.87298        0.64824
C          5.26188        1.51362        0.54219
C          4.18967        0.64001        0.57251
H          4.34308       -0.42392        0.48626
H          1.68042        2.85371        0.90856
C          2.00402       -1.57396       -0.04311
C          2.27798       -2.70332        0.69478
C          2.63256       -3.87441        0.04962
C          2.71612       -3.90496       -1.32861
C          2.45375       -2.76629       -2.06399
C          2.10051       -1.59792       -1.41543
H          1.90375       -0.69339       -1.96841
H          2.21555       -2.66887        1.77002
C          1.04875       -0.25961        2.50721
C          0.05375        0.80547        2.94670
C         -1.39512        0.46344        2.63371
P         -1.71826        0.01380        0.87369
C         -3.42544        0.41280        0.48002
C         -3.87723        1.70092        0.65366
C         -5.18925        2.01688        0.34846
C         -6.03995        1.03890       -0.12776
C         -5.58248       -0.25242       -0.30092
C         -4.26999       -0.56444        0.00397
H         -3.89915       -1.56758       -0.12925
H         -3.19762        2.45851        1.01091
C         -1.39159       -1.72211        0.51281
C         -1.29472       -2.09458       -0.80903
C         -1.02422       -3.40956       -1.14053
C         -0.85660       -4.34767       -0.14247
C         -0.96675       -3.97427        1.18191
C         -1.23893       -2.65872        1.50925
H         -1.34389       -2.36921        2.54121
H         -1.42956       -1.35102       -1.57899
Pd        -0.13073        0.93800       -0.55476
Cl         1.42300        1.57673       -2.04505
Cl        -1.81623        1.90530       -1.67291
H         -1.73913       -0.37322        3.24346
H         -2.05213        1.30319        2.87232
H          0.15507        0.99219        4.02740
H          0.31971        1.75745        2.46683
H          0.63725       -1.25946        2.64332
H          1.97620       -0.21527        3.08398
H          3.58764        4.42079        0.86171
H          6.26424        1.13329        0.43320
H          2.84021       -4.76290        0.62299
H          2.52387       -2.78638       -3.13906
H         -5.54392        3.02627        0.47725
H         -6.24502       -1.01548       -0.67520
H         -0.93773       -3.69795       -2.17517
H         -0.84007       -4.70771        1.96126
H          5.87741        3.55552        0.62163
H          2.98923       -4.81862       -1.83089
H         -7.06155        1.28467       -0.36786
H         -0.63868       -5.37198       -0.39735
