105
-153.07246726
Cl        -0.82220        2.10591       -2.83149
Pd         0.12054        1.48302       -0.88684
P          1.36342        0.68883        0.91265
N          0.73223       -0.60411        1.92121
C          0.06624       -1.79684        1.67545
C         -0.12403       -2.34595        0.38305
C         -0.91398       -3.50447        0.23046
C         -1.09737       -4.07612       -1.15613
C         -1.70358       -5.48793       -1.19310
C         -2.85355       -5.62098       -0.19057
C         -2.36169       -5.34077        1.23733
C         -1.49040       -4.11522        1.34622
C         -1.24539       -3.59054        2.60824
C         -0.48374       -2.46261        2.77057
H         -0.33120       -2.05347        3.75418
H         -1.68022       -4.07371        3.46687
H         -3.21513       -5.23025        1.91862
H         -3.64507       -4.90718       -0.45078
H         -2.04176       -5.74100       -2.20786
H         -1.72987       -3.38851       -1.72972
C          0.66422       -1.88032       -0.78245
C          0.01749       -1.26354       -1.88744
C          0.76051       -1.03961       -3.05001
C          2.07783       -1.41084       -3.13066
C          2.71602       -2.04856       -2.07357
C          4.14073       -2.50817       -2.27811
C          4.79818       -3.15672       -1.04736
C          3.79012       -3.97819       -0.23906
C          2.62064       -3.09647        0.22086
C          2.00379       -2.29501       -0.89864
H          1.84771       -3.71729        0.69064
H          4.27748       -4.46256        0.61899
H          5.21841       -2.37659       -0.40285
H          4.73749       -1.65275       -2.61861
H          2.63190       -1.22539       -4.03528
H          0.28550       -0.54859       -3.88107
N         -1.32151       -0.85239       -1.84447
P         -1.84135        0.18580       -0.51425
C         -2.77255       -0.70338        0.73153
C         -3.61175       -1.70869        0.31526
C         -4.39504       -2.37664        1.23954
C         -4.34006       -2.03823        2.58479
C         -3.50859       -0.99835        2.97923
C         -2.72869       -0.32953        2.05347
H         -2.07804        0.47148        2.36044
H         -3.47190       -0.71882        4.01827
C         -5.18208       -2.75420        3.58219
H         -5.05249       -3.16715        0.92074
H         -3.64725       -1.96660       -0.73146
C         -2.97106        1.45904       -1.09068
C         -2.96464        2.69948       -0.49749
C         -3.83923        3.67535       -0.93904
C         -4.72522        3.41381       -1.97545
C         -4.73058        2.14791       -2.54565
C         -3.85406        1.17314       -2.10393
H         -3.85910        0.18874       -2.54367
H         -5.42497        1.93042       -3.33912
C         -5.68056        4.45798       -2.43852
H         -3.83643        4.64969       -0.48102
H         -2.27264        2.90382        0.30371
H         -1.64619       -0.37917       -2.67793
H          0.95875       -0.37831        2.88223
C          1.30379        2.16909        1.93118
C          0.07037        2.64528        2.30641
C         -0.02262        3.79594        3.06804
C          1.12250        4.47435        3.46272
C          2.35891        3.98439        3.06380
C          2.44824        2.83417        2.30181
H          3.40739        2.46060        1.98377
H          3.25201        4.51411        3.34826
C          1.02449        5.73032        4.25665
H         -0.98764        4.17715        3.35544
H         -0.81577        2.12220        1.98774
C          3.09099        0.39214        0.53019
C          3.63030        0.75001       -0.68247
C          4.98139        0.57441       -0.91522
C          5.80390        0.03981        0.06654
C          5.24566       -0.30126        1.29112
C          3.89256       -0.12506        1.52057
H          3.45699       -0.38030        2.47384
H          5.87681       -0.70367        2.06488
C          7.26226       -0.13193       -0.17985
H          5.40759        0.86077       -1.86151
H          2.99756        1.18606       -1.43736
Cl         1.67434        3.10735       -0.99345
H         -1.79801       -6.20409        1.61057
H         -0.92631       -6.22363       -0.95097
H         -3.31841       -6.61482       -0.25804
H         -0.12717       -4.07434       -1.66876
H          3.40529       -4.79589       -0.86137
H          2.95621       -2.40888        1.00405
H          4.15229       -3.21888       -3.11326
H          5.65427       -3.77819       -1.34567
H         -5.39726       -3.77314        3.25717
H         -4.67938       -2.81530        4.54850
H         -6.13254       -2.23923        3.72818
H         -5.90881        4.33969       -3.49868
H         -6.61772        4.39960       -1.88329
H         -5.26809        5.45823       -2.29931
H          0.96029        6.59883        3.59980
H          0.13992        5.72485        4.89507
H          1.89601        5.85848        4.90016
H          7.67546       -0.93105        0.43726
H          7.45685       -0.38576       -1.22290
H          7.80455        0.78609        0.05035
