111
-148.55404911
P         -2.18867       -2.14457       -1.29815
P          0.16400       -0.17909       -0.53058
C         -1.06279       -1.55590       -2.58334
C         -0.05098       -0.68242       -2.25030
C         -2.30340       -3.99008       -1.28905
C         -1.47669       -4.58341       -0.16823
C         -1.21675       -1.97372       -3.88951
H         -2.00138       -2.67056       -4.13634
C         -0.36164       -1.49868       -4.86858
H         -0.48149       -1.82117       -5.88998
C          0.64363       -0.61082       -4.53712
H          1.30856       -0.23867       -5.29911
C          0.80044       -0.20349       -3.22426
H          1.58385        0.48546       -2.95398
Pd        -1.45280       -1.29906        0.71597
Cl        -3.32706       -2.08246        1.66402
Cl        -0.57493       -0.42603        2.58429
C         -3.81758       -4.23687       -1.16439
C         -3.96497       -1.71348       -1.61084
H         -1.54315       -5.67384       -0.15718
H         -0.42331       -4.30801       -0.26246
H         -1.82459       -4.22282        0.80169
H         -4.07460       -4.31527       -0.09890
H         -4.08559       -5.20899       -1.60569
H         -4.31901       -1.24305       -0.68405
C         -4.63828       -3.08579       -1.81020
C         -4.12658       -0.77507       -2.78997
H         -1.93712       -4.32876       -2.26698
H         -4.74358       -3.27469       -2.88721
H         -5.66499       -3.06799       -1.41466
H         -3.81445       -1.25815       -3.71682
H         -5.16731       -0.46786       -2.91639
H         -3.51770        0.12344       -2.67617
C         -1.31756        4.07188        0.16239
C         -2.20719        3.06784       -0.29988
C         -1.69652        1.80271       -0.54255
C         -0.39201        1.49972       -0.24720
C          0.42854        2.42763        0.34004
C         -0.01228        3.71618        0.58786
O         -1.71107        5.43618        0.15109
C         -3.70367        3.32627       -0.53402
H         -2.31821        1.02635       -0.95331
H          1.42516        2.13023        0.61127
C          0.92776        4.71126        1.28522
C          4.40527       -1.02805        0.92592
C          4.16943        0.06607        0.05535
C          2.87564        0.28637       -0.38779
C          1.83270       -0.48854        0.05130
C          2.04443       -1.48786        0.96503
C          3.31058       -1.75535        1.45759
O          5.73601       -1.41294        1.24015
C          5.29892        0.98803       -0.43205
H          2.66612        1.07476       -1.08894
H          1.19716       -2.05950        1.30087
C          3.47373       -2.82592        2.54845
C         -4.52825        2.08090       -0.13747
C         -4.21855        4.49025        0.33262
C         -3.93783        3.63394       -2.02031
C          1.86016        3.97542        2.27412
C          1.78501        5.42385        0.22861
C          0.13360        5.74525        2.10427
C         -1.45054        6.09251       -1.08304
H         -4.33786        1.24192       -0.80220
H         -4.29186        1.76845        0.87940
H         -5.59644        2.29097       -0.18476
H         -3.74727        5.42999        0.05647
H         -5.29505        4.61662        0.22024
H         -4.00614        4.30715        1.38540
H         -4.99423        3.81005       -2.22126
H         -3.38338        4.51808       -2.32875
H         -3.60949        2.80264       -2.64358
H          2.56914        3.32996        1.75912
H          2.44217        4.68659        2.85978
H          1.28280        3.36369        2.96684
H          1.16354        5.98165       -0.46863
H          2.47892        6.12278        0.69488
H          2.36599        4.70379       -0.34704
H          0.80206        6.40606        2.65557
H         -0.48688        6.36629        1.46270
H         -0.51914        5.24750        2.82060
H         -0.92031        5.42489       -1.76341
H         -2.38955        6.40254       -1.54105
H         -0.84530        6.98081       -0.90189
C          6.28078       -2.39059        0.36282
C          4.75954        2.40139       -0.74833
C          6.38128        1.15540        0.65007
C          5.91473        0.40338       -1.71211
C          3.69195       -4.19638        1.89002
C          4.65037       -2.49056        3.48280
C          2.20640       -2.89925        3.43181
H          5.57680        3.08373       -0.98100
H          4.09301        2.39694       -1.60946
H          4.21877        2.80877        0.10467
H          7.14889        1.86004        0.33109
H          5.94345        1.52676        1.57606
H          6.87308        0.21085        0.86894
H          5.16147        0.31070       -2.49419
H          6.71466        1.04121       -2.08729
H          6.32964       -0.58561       -1.53391
H          4.58606       -4.19916        1.27129
H          3.80027       -4.97774        2.64181
H          2.84715       -4.45619        1.25244
H          4.52154       -1.50142        3.92098
H          4.72531       -3.21410        4.29417
H          5.59678       -2.49718        2.94807
H          1.93904       -1.91243        3.80879
H          2.36847       -3.55273        4.28860
H          1.35397       -3.29782        2.88384
H          6.54494       -3.28397        0.92832
H          5.55935       -2.65054       -0.41282
H          7.18758       -2.00093       -0.09950
