72
-108.40469508
Cl         1.72369       -0.87807        2.70965
Cl        -0.98633        0.70682        2.80503
P         -1.09100        1.15919       -0.26984
P          2.24279       -0.11528       -0.37318
C          3.23070        1.48716       -0.12994
C          3.58038        1.64279        1.35179
C          4.50056        1.45526       -0.97292
C          3.33429       -1.65575       -0.12351
C          4.16130       -1.93380       -1.38566
C          1.43959       -0.42074       -2.05394
C          1.52553        0.73434       -3.02995
C         -1.13084       -0.16601       -1.51228
C          0.01432       -0.94300       -1.98557
C         -0.50120       -1.99267       -2.86748
C         -1.94641       -1.88239       -2.89768
C         -2.33198       -0.74680       -2.08118
C          2.36629        2.67353       -0.53115
H          4.07137        2.60088        1.53008
H          2.68762        1.61225        1.97637
H          5.02343        2.41122       -0.91393
H          4.28073        1.26452       -2.02219
C          4.28022       -1.51552        1.06526
H          4.93697       -2.67261       -1.17732
H          4.65336       -1.03594       -1.75461
H          2.03837       -1.23984       -2.46274
H          0.87298        1.54623       -2.71705
H          1.18646        0.43273       -4.02317
H          2.53995        1.11745       -3.13352
H          0.10446       -2.68616       -3.45398
H         -2.62474       -2.51093       -3.47927
Pd         0.50649        0.22784        1.18692
H         -3.34812       -0.39868       -1.88382
C          2.37479       -2.81122        0.12039
H          3.55544       -2.34391       -2.19270
H          3.74848       -1.21975        1.96710
H          4.76942       -2.46748        1.27657
H          5.06947       -0.79273        0.86688
H          1.86815       -2.69285        1.07692
H          1.62293       -2.86866       -0.66795
H          2.90848       -3.76334        0.14726
H          4.25926        0.86950        1.70063
H          5.19237        0.68976       -0.62572
H          2.12622        2.66840       -1.59117
H          1.43862        2.67498        0.03832
H          2.87910        3.61440       -0.32409
C         -2.75843        1.25183        0.43562
C         -3.19041        2.21420        1.31428
C         -4.51913        1.92258        1.62221
C         -4.84631        0.79266        0.91452
O         -3.77497        0.37098        0.18160
H         -2.60256        3.02530        1.71068
H         -5.16134        2.47390        2.28945
H         -5.80784        0.29445        0.92669
C         -0.71825        2.77063       -0.98568
C         -0.67033        3.93468       -0.25861
C         -0.35716        4.96107       -1.15070
C         -0.22713        4.37912       -2.38775
O         -0.44208        3.03319       -2.29975
H         -0.82417        4.02807        0.80419
H         -0.23972        6.00605       -0.91452
H          0.01318        4.89682       -3.30809
Fe        -1.31100       -2.10149       -0.97581
C         -2.98874       -2.79807       -0.04088
C         -2.16943       -2.01014        0.85938
C         -0.87094       -2.64152        0.96001
C         -0.86592       -3.80696        0.09668
C         -2.16949       -3.89012       -0.53749
H         -4.02792       -2.59221       -0.30779
H         -2.48302       -1.11364        1.39797
H         -0.07149       -2.31777        1.62848
H         -0.04777       -4.52060       -0.02224
H         -2.49698       -4.67287       -1.22587
