105
-153.06623883
Cl        -1.07466        3.31893       -2.01170
Pd        -0.06744        1.78661       -0.71630
P          0.98261        0.48654        0.97434
N          0.01366       -0.84533        1.59317
C         -0.03534       -2.23437        1.38237
C          0.25930       -2.86048        0.14082
C         -0.06629       -4.22135       -0.04292
C          0.00150       -4.82922       -1.42336
C         -1.00055       -5.97738       -1.60324
C         -0.77526       -7.03445       -0.51731
C         -0.94202       -6.43532        0.89181
C         -0.56405       -4.97650        1.02267
C         -0.78858       -4.35493        2.24477
C         -0.55691       -3.01475        2.41305
H         -0.78496       -2.53804        3.35083
H         -1.18792       -4.93664        3.05849
H         -1.98639       -6.54312        1.20915
H         -1.44998       -7.88988       -0.66141
H         -2.02135       -5.58344       -1.52219
H         -0.16653       -4.05129       -2.17843
C          0.67415       -2.04693       -1.02824
C         -0.29023       -1.18064       -1.60027
C          0.03904       -0.46490       -2.75010
C          1.28248       -0.58913       -3.31349
C          2.24230       -1.43346       -2.76511
C          3.58340       -1.53665       -3.44065
C          4.28591       -2.86865       -3.14452
C          4.35592       -3.10146       -1.63276
C          2.95612       -3.10613       -0.98975
C          1.94488       -2.17090       -1.61634
H          2.55926       -4.12416       -1.01935
H          4.96344       -2.30906       -1.18259
H          5.28799       -2.89609       -3.59570
H          4.21042       -0.70210       -3.10489
H          1.53034       -0.01955       -4.19300
H         -0.68948        0.20388       -3.17264
N         -1.51751       -1.01311       -0.95731
P         -2.09353        0.62384       -0.67966
C         -2.60428        0.83570        1.02494
C         -3.22246       -0.19720        1.69034
C         -3.44883       -0.09591        3.05107
C         -3.05972        1.03893        3.74976
C         -2.47120        2.08429        3.05222
C         -2.23862        1.97994        1.69403
H         -1.75628        2.78227        1.15839
H         -2.17636        2.97328        3.58332
C         -3.30100        1.14962        5.21482
H         -3.92208       -0.90464        3.58150
H         -3.49810       -1.09008        1.15153
C         -3.34814        1.12798       -1.84592
C         -3.57826        0.34131       -2.94862
C         -4.53361        0.71983       -3.87503
C         -5.26610        1.88599       -3.69533
C         -5.01281        2.66910       -2.57659
C         -4.05771        2.28820       -1.65124
H         -3.85377        2.89554       -0.78362
H         -5.56446        3.58310       -2.43745
C         -6.27309        2.31276       -4.70601
H         -4.71369        0.11191       -4.74511
H         -3.01170       -0.56756       -3.07414
H         -1.59331       -1.47626       -0.05885
H         -0.82155       -0.39787        1.95379
C          1.02113        1.67484        2.32481
C          0.71899        1.22446        3.58844
C          0.71049        2.10670        4.65390
C          1.01430        3.44726        4.46080
C          1.32267        3.88304        3.17924
C          1.33213        2.99738        2.11915
H          1.58086        3.33130        1.12671
H          1.55270        4.92212        3.01643
C          0.96729        4.40633        5.59882
H          0.45964        1.75918        5.64151
H          0.47958        0.18392        3.73589
C          2.67411       -0.09318        0.83334
C          3.58085        0.42635       -0.05884
C          4.89714        0.00837       -0.03125
C          5.32014       -0.93299        0.89764
C          4.39720       -1.43636        1.80377
C          3.07905       -1.01497        1.77043
H          2.35839       -1.39753        2.47621
H          4.71658       -2.15704        2.53695
C          6.74284       -1.36993        0.94690
H          5.60873        0.42115       -0.72581
H          3.26473        1.18703       -0.75025
Cl         1.92045        2.79706       -0.98206
H         -0.35807       -7.01209        1.62010
H         -0.92815       -6.41632       -2.60838
H          0.23797       -7.44273       -0.62265
H          1.01110       -5.21087       -1.60474
H          4.88961       -4.03581       -1.40902
H          3.02981       -2.86898        0.07742
H          3.45911       -1.39860       -4.52226
H          3.72571       -3.68751       -3.61327
H         -4.28055        1.58605        5.41451
H         -3.26340        0.17069        5.69484
H         -2.54792        1.77968        5.69049
H         -7.08735        2.86915       -4.23968
H         -5.81575        2.95427       -5.46045
H         -6.70963        1.45246       -5.21527
H          1.65838        5.23601        5.44376
H         -0.03534        4.82032        5.71456
H          1.24062        3.91896        6.53574
H          7.29297       -0.81189        1.70569
H          6.81866       -2.43130        1.18772
H          7.23883       -1.21205       -0.01185
