111
-148.55533861
P         -2.38130       -2.22367       -0.48618
P          0.07214       -0.21181       -0.47523
C         -1.53057       -1.82743       -2.03642
C         -0.46338       -0.95749       -2.02414
C         -2.81070       -4.02337       -0.44392
C         -2.29490       -4.67178        0.82187
C         -1.94377       -2.39204       -3.22634
H         -2.77895       -3.07324       -3.23088
C         -1.28526       -2.07912       -4.40308
H         -1.60726       -2.51982       -5.33244
C         -0.21806       -1.20165       -4.38799
H          0.29370       -0.95634       -5.30401
C          0.19263       -0.63647       -3.19392
H          1.02169        0.05336       -3.16387
Pd        -1.13699       -1.26392        1.20550
Cl        -2.64771       -2.01962        2.68037
Cl         0.18986       -0.30500        2.73818
C         -4.34904       -4.01781       -0.56427
C         -4.07020       -1.47619       -0.36097
H         -1.21190       -4.55946        0.91380
H         -2.74896       -4.21166        1.70088
H         -2.52892       -5.73867        0.85071
H         -4.76251       -4.87854       -0.01862
H         -4.64352       -4.16441       -1.61384
H         -4.04341       -0.77326        0.48272
C         -4.96470       -2.69057       -0.03850
C         -4.44270       -0.75615       -1.63931
H         -2.34373       -4.48316       -1.32545
H         -5.96682       -2.53232       -0.46302
H         -5.11152       -2.76552        1.04911
H         -4.46745       -1.45202       -2.47961
H         -5.42985       -0.29345       -1.56646
H         -3.71802        0.02516       -1.88131
C         -1.34203        4.12069       -0.49022
C         -2.13470        3.11026        0.11551
C         -1.67517        1.80495        0.07051
C         -0.44049        1.50335       -0.44295
C          0.38060        2.49195       -0.91975
C         -0.02442        3.81745       -0.92484
O         -1.89452        5.40531       -0.72928
C         -3.45651        3.38020        0.85545
H         -2.29184        1.00447        0.44048
H          1.34664        2.21379       -1.30526
C          0.98094        4.88015       -1.40077
C          4.47324       -0.97610        0.42133
C          3.82399        0.14166        1.00471
C          2.48843        0.35458        0.70446
C          1.82260       -0.45320       -0.17969
C          2.47381       -1.47534       -0.82054
C          3.81287       -1.73453       -0.57885
O          5.76369       -1.36496        0.86941
C          4.52120        1.07770        2.00416
H          1.93341        1.13813        1.19061
H          1.91237       -2.08415       -1.50788
C          4.51262       -2.84923       -1.37238
C         -3.44862        2.62705        2.20527
C         -3.65200        4.87247        1.17439
C         -4.63557        2.87609        0.00790
C          0.56655        6.30437       -0.99093
C          2.35826        4.61222       -0.75685
C          1.11802        4.80418       -2.93017
C         -2.57818        5.48896       -1.96865
H         -4.33646        2.86693        2.78959
H         -3.43422        1.54716        2.06820
H         -2.57391        2.90216        2.79378
H         -4.54226        5.03108        1.78250
H         -2.79359        5.26440        1.71882
H         -3.76597        5.45824        0.26535
H         -4.54391        1.80891       -0.18834
H         -5.58248        3.04133        0.52120
H         -4.68020        3.38822       -0.95122
H          1.33904        7.02825       -1.24945
H         -0.34916        6.60848       -1.49233
H          0.39364        6.35996        0.08326
H          3.06832        5.39708       -1.01633
H          2.27268        4.58254        0.32893
H          2.78383        3.66790       -1.09172
H          0.16774        5.00536       -3.42088
H          1.84377        5.53170       -3.29276
H          1.45001        3.81441       -3.24222
H         -3.37646        4.74974       -2.00660
H         -3.00463        6.48639       -2.07725
H         -1.88802        5.30181       -2.78955
C          5.74427       -2.29395        1.94635
C          6.02942        1.18622        1.71450
C          3.94581        2.50763        1.90462
C          4.28914        0.55274        3.42924
C          3.89629       -2.98020       -2.78418
C          6.00852       -2.53982       -1.56424
C          4.33883       -4.18579       -0.63531
H          6.20043        1.51195        0.68900
H          6.50587        1.90364        2.38221
H          6.53052        0.23114        1.84824
H          2.90747        2.55153        2.22921
H          4.50745        3.19565        2.53611
H          4.00414        2.87224        0.88016
H          4.69615       -0.44829        3.55127
H          4.76077        1.20140        4.16686
H          3.22344        0.50532        3.65227
H          4.47075       -3.67731       -3.39381
H          2.87503       -3.35625       -2.74624
H          3.88845       -2.01733       -3.29437
H          6.14128       -1.57331       -2.04919
H          6.53303       -2.50986       -0.61251
H          6.48958       -3.29821       -2.18142
H          4.81073       -4.99936       -1.18564
H          3.28248       -4.42609       -0.51702
H          4.78286       -4.14995        0.35657
H          6.23686       -1.85893        2.81574
H          4.71709       -2.55480        2.20448
H          6.28829       -3.19455        1.66202
