171
-217.84396333
P         -1.57749        0.38582       -0.45748
P          1.59455       -0.30138       -0.28623
C         -0.82613        1.45752       -1.68758
C          1.02819       -1.18538       -1.74029
C          0.05895        0.94368       -2.62884
C          0.72642        1.83825       -3.48822
C          0.45228        3.19303       -3.40205
C         -0.45547        3.67846       -2.48498
C         -1.08612        2.80493       -1.62150
C          1.30282       -2.52677       -1.84358
C          0.84614       -3.24586       -2.93063
C          0.09865       -2.61387       -3.90183
C         -0.18846       -1.26138       -3.81511
C          0.30289       -0.52210       -2.72247
Cl         1.42756        0.33575        2.92502
Cl        -1.71907       -0.44508        2.79062
C         -0.98217       -0.60354       -4.88869
C          1.73869        1.36496       -4.47232
H         -0.66416        4.73456       -2.43326
H         -1.78448        3.17784       -0.89025
H          1.87997       -3.01228       -1.07321
H          1.07123       -4.29626       -3.01754
H          0.96548        3.87154       -4.06258
H         -0.26851       -3.17320       -4.74573
C         -3.65251       -3.34606       -1.95124
C         -2.68546       -3.46221       -0.95974
C         -2.02754       -2.30746       -0.55788
C         -2.34016       -1.09434       -1.11922
C         -3.30218       -0.99486       -2.09440
C         -3.98738       -2.12461       -2.52535
H         -4.16636       -4.22965       -2.27654
H         -1.27256       -2.34904        0.20818
H         -3.53498       -0.02530       -2.50243
C         -4.58356        2.53069        2.18947
C         -3.25898        2.95198        2.20242
C         -2.36515        2.31415        1.35268
C         -2.77953        1.28680        0.54151
C         -4.08979        0.87774        0.55051
C         -5.02068        1.48956        1.37897
H         -5.28956        3.01883        2.83297
H         -1.32829        2.60477        1.34117
H         -4.38684        0.06194       -0.08455
C          4.15002       -2.91333        2.41028
C          2.80024       -3.21413        2.27138
C          2.04671       -2.43156        1.40679
C          2.61819       -1.37748        0.73733
C          3.95052       -1.08794        0.89679
C          4.74879       -1.85987        1.73082
H          4.75440       -3.50059        3.07564
H          0.99554       -2.62729        1.27879
H          4.35973       -0.23891        0.37990
C          3.94197        3.43412       -1.27251
C          2.85130        3.53632       -0.41847
C          2.14021        2.37787       -0.13234
C          2.50109        1.18435       -0.70540
C          3.56935        1.10268       -1.56476
C          4.32038        2.23433       -1.86158
H          4.52637        4.31373       -1.46993
H          1.30353        2.39378        0.54414
H          3.81551        0.14492       -1.99108
Pd        -0.09310       -0.00696        1.30746
C         -0.93825       -5.24172       -0.81314
C         -2.32436       -4.80687       -0.31204
C         -3.34630       -5.90423       -0.66808
C         -2.30091       -4.65508        1.22240
H         -0.63099       -6.18155       -0.35483
H         -0.94738       -5.37953       -1.89405
H         -0.18808       -4.48774       -0.58015
H         -3.10831       -6.83509       -0.15338
H         -4.35358       -5.60963       -0.37389
H         -3.34496       -6.11430       -1.73732
H         -3.26420       -4.30051        1.58830
H         -2.08642       -5.60829        1.70528
H         -1.54069       -3.94579        1.54477
C         -4.52708       -1.45248       -4.88442
C         -5.11061       -1.98401       -3.56457
C         -6.16914       -0.99876       -3.03497
C         -5.80223       -3.33227       -3.84596
H         -4.04985       -0.48365       -4.74268
H         -3.78415       -2.14417       -5.28001
H         -5.30759       -1.33277       -5.63565
H         -5.74564       -0.00596       -2.88920
H         -7.00021       -0.90520       -3.73379
H         -6.56807       -1.33991       -2.07983
H         -5.09781       -4.05840       -4.25129
H         -6.24234       -3.74431       -2.93799
H         -6.60366       -3.21053       -4.57461
C         -3.83190        4.51772        4.12751
C         -2.75591        4.07885        3.11549
C         -2.37085        5.28965        2.24851
C         -1.52576        3.58747        3.90493
H         -4.70327        4.93338        3.62210
H         -4.15528        3.67777        4.74214
H         -3.44356        5.28703        4.79487
H         -3.23633        5.66212        1.70080
H         -1.98136        6.10261        2.86100
H         -1.60845        5.02143        1.51933
H         -1.77089        2.69581        4.48151
H         -0.69783        3.33723        3.24374
H         -1.17489        4.35249        4.59714
C         -6.51380       -0.52395        1.56132
C         -6.47756        1.00474        1.36370
C         -7.10984        1.36730        0.00911
C         -7.30735        1.65529        2.48747
H         -7.54048       -0.88695        1.60493
H         -6.01511       -1.04590        0.74573
H         -6.01698       -0.80274        2.49034
H         -6.55879        0.91246       -0.81240
H         -8.14252        1.02334       -0.04623
H         -7.10305        2.44644       -0.14309
H         -7.36911        2.73552        2.35789
H         -8.32615        1.26793        2.48932
H         -6.87166        1.44759        3.46467
C          0.98211       -3.71395        3.91911
C          2.11030       -4.32987        3.06868
C          3.09272       -5.05234        4.01002
C          1.51978       -5.36190        2.09275
H          0.23177       -3.23038        3.29508
H          0.47957       -4.47632        4.51385
H          1.38085       -2.96136        4.59886
H          2.58429       -5.83648        4.57094
H          3.90163       -5.52016        3.44916
H          3.52590       -4.35941        4.73110
H          0.78012       -4.90215        1.44094
H          2.30013       -5.79048        1.46418
H          1.03163       -6.17489        2.62993
C          7.07339       -2.79914        1.59800
C          6.23764       -1.55328        1.94560
C          6.46481       -1.16695        3.41816
C          6.71089       -0.38791        1.05415
H          8.13823       -2.59966        1.71710
H          6.81954       -3.64072        2.24127
H          6.90028       -3.10225        0.56554
H          6.18864       -1.98118        4.08717
H          7.51118       -0.92344        3.60142
H          5.86330       -0.29785        3.68399
H          6.17450        0.53094        1.29047
H          7.77346       -0.19466        1.20075
H          6.55873       -0.61690       -0.00046
C          1.17479        4.80727        1.00372
C          2.49028        4.88996        0.20694
C          2.31630        5.94201       -0.90472
C          3.61851        5.32099        1.16022
H          1.26546        4.11637        1.84139
H          0.90498        5.78212        1.40956
H          0.35791        4.47322        0.36491
H          2.01694        6.90346       -0.48782
H          3.24192        6.09488       -1.45798
H          1.55078        5.62899       -1.61374
H          3.38760        6.27573        1.63237
H          3.76075        4.58004        1.94675
H          4.56322        5.42931        0.62835
C          5.73541        0.79721       -3.41233
C          5.57345        2.17829       -2.74752
C          6.81186        2.45246       -1.87526
C          5.48215        3.24384       -3.85699
H          5.86975        0.01437       -2.66622
H          4.86498        0.54968       -4.01942
H          6.60915        0.78161       -4.06366
H          6.75701        3.43785       -1.41357
H          6.89260        1.71484       -1.07764
H          7.72518        2.40996       -2.46839
H          4.59638        3.09192       -4.47192
H          5.43250        4.24948       -3.44185
H          6.35395        3.19975       -4.50962
H         -1.65206       -1.31451       -5.37267
H          1.97364        0.30905       -4.33322
H         -0.33016       -0.18875       -5.65811
H         -1.59012        0.20838       -4.48689
H          2.66827        1.92329       -4.36305
H          1.38446        1.50245       -5.49493
