171
-217.84355804
P         -1.60502        0.33282       -0.48168
P          1.68948       -0.35001       -0.35867
C         -0.87042        1.31907       -1.78592
C          1.07796       -1.30771       -1.74692
C          0.00206        0.74475       -2.70265
C          0.62711        1.57519       -3.65179
C          0.32474        2.92678       -3.67509
C         -0.56844        3.47049       -2.77655
C         -1.15693        2.66187       -1.82404
C          1.38214       -2.64635       -1.79514
C          0.86447       -3.44010       -2.79988
C          0.01838       -2.88762       -3.73786
C         -0.29883       -1.54000       -3.70826
C          0.26084       -0.72201       -2.70757
Cl         1.40619        0.46626        2.85952
Cl        -1.60733       -0.35274        2.77043
C         -1.22747       -0.98900       -4.73369
C          1.57891        1.01229       -4.64809
H         -0.80310        4.52177       -2.81344
H         -1.84487        3.07950       -1.10649
H          2.02577       -3.07337       -1.04280
H          1.11181       -4.48825       -2.84275
H          0.79544        3.55557       -4.41191
H         -0.40748       -3.50649       -4.50965
C         -3.74408       -3.41065       -1.83963
C         -2.76794       -3.51538       -0.85578
C         -2.09819       -2.35751       -0.48413
C         -2.41172       -1.15383       -1.06447
C         -3.38091       -1.06494       -2.03280
C         -4.06979       -2.20109       -2.44182
H         -4.28077       -4.29039       -2.14055
H         -1.33089       -2.39041        0.27006
H         -3.59964       -0.09917       -2.45593
C         -4.45576        2.74608        2.09166
C         -3.10127        3.05765        2.11750
C         -2.25323        2.33183        1.29218
C         -2.74190        1.32237        0.50060
C         -4.08081        1.02089        0.49527
C         -4.96979        1.73651        1.28687
H         -5.13288        3.29026        2.72276
H         -1.19527        2.53402        1.29150
H         -4.42435        0.20902       -0.12022
C          4.18274       -2.76380        2.56360
C          2.86167       -3.13287        2.34081
C          2.13634       -2.40854        1.40504
C          2.70706       -1.35107        0.74008
C          4.01137       -0.99522        0.97816
C          4.78098       -1.70412        1.89251
H          4.76207       -3.29913        3.29203
H          1.10350       -2.65100        1.21808
H          4.41553       -0.14298        0.46166
C          3.90284        3.47573       -1.31665
C          2.81686        3.51995       -0.45010
C          2.13109        2.33689       -0.21071
C          2.53285        1.16478       -0.80115
C          3.61357        1.13461       -1.64759
C          4.32565        2.29650       -1.92094
H          4.43926        4.38258       -1.51798
H          1.28270        2.32405        0.45185
H          3.91186        0.19490       -2.08190
Pd        -0.02624       -0.06884        1.19073
C         -2.35457       -4.67842        1.33807
C         -2.39950       -4.85079       -0.19358
C         -1.01905       -5.29228       -0.70483
C         -3.42625       -5.95170       -0.52283
H         -2.13952       -5.62646        1.83078
H         -1.58432       -3.97070        1.63990
H         -3.31035       -4.31243        1.71227
H         -0.70554       -6.22502       -0.23639
H         -1.04057       -5.44528       -1.78353
H         -0.26673       -4.53455       -0.49093
H         -3.18124       -6.87691       -0.00131
H         -4.42927       -5.65343       -0.21800
H         -3.43993       -6.17312       -1.58970
C         -4.93213       -3.15029       -4.60790
C         -5.20489       -2.14302       -3.47442
C         -5.33779       -0.73774       -4.09352
C         -6.53132       -2.49829       -2.77823
H         -4.89609       -4.17232       -4.23326
H         -5.71449       -3.10384       -5.36529
H         -3.98113       -2.93942       -5.09506
H         -4.41217       -0.43454       -4.58200
H         -6.12903       -0.71864       -4.84285
H         -5.58718        0.00417       -3.33521
H         -6.49896       -3.50313       -2.35836
H         -6.73760       -1.80335       -1.96472
H         -7.36465       -2.45467       -3.47927
C         -1.81215        5.20620        2.20692
C         -2.50706        4.12257        3.04971
C         -1.47939        3.45343        3.98328
C         -3.59032        4.79390        3.91497
H         -2.51756        5.67309        1.51981
H         -1.39014        5.98533        2.84148
H         -1.00180        4.78209        1.61752
H         -1.04818        4.17763        4.67397
H         -1.94953        2.66385        4.56889
H         -0.66304        3.00407        3.41932
H         -4.33387        5.29398        3.29463
H         -4.09819        4.06293        4.54386
H         -3.15019        5.54432        4.57158
C         -7.27016        2.67962        0.94221
C         -6.47124        1.41757        1.31647
C         -6.86066        0.95454        2.73191
C         -6.83372        0.29957        0.31831
H         -8.34053        2.47450        0.93173
H         -7.09367        3.48682        1.65201
H         -6.98501        3.03554       -0.04766
H         -7.91935        0.70080        2.78257
H         -6.28724        0.07321        3.01871
H         -6.66777        1.73281        3.46939
H         -6.31761       -0.62864        0.56313
H         -7.90409        0.09507        0.33772
H         -6.57016        0.58408       -0.70024
C          3.12212       -4.93993        4.11614
C          2.16331       -4.25146        3.12640
C          1.63207       -5.31058        2.14423
C          0.98998       -3.64530        3.92037
H          3.50148       -4.23140        4.85219
H          2.61158       -5.73573        4.65841
H          3.96923       -5.38592        3.59528
H          0.90603       -4.87924        1.45809
H          2.44482       -5.73020        1.55174
H          1.14311       -6.12690        2.67560
H          0.47427       -4.40926        4.50166
H          1.34665       -2.87863        4.60774
H          0.26064       -3.18065        3.25814
C          6.30930       -0.84283        3.67821
C          6.23054       -1.31499        2.21536
C          6.72805       -0.17624        1.30419
C          7.14936       -2.53399        2.01012
H          7.32394       -0.54130        3.93770
H          5.65012        0.00947        3.84224
H          6.00893       -1.63371        4.36462
H          7.76474        0.07486        1.52811
H          6.67727       -0.46932        0.25611
H          6.13442        0.72736        1.44171
H          8.19003       -2.27415        2.20343
H          6.88264       -3.35147        2.67866
H          7.07798       -2.90106        0.98641
C          2.15845        4.56312        1.74295
C          2.35416        4.81459        0.23405
C          1.02389        5.25971       -0.39350
C          3.38489        5.94783        0.06641
H          3.08052        4.19818        2.19468
H          1.87037        5.47999        2.25688
H          1.38079        3.82442        1.92976
H          0.64871        6.16620        0.08109
H          1.15037        5.46176       -1.45679
H          0.26750        4.48335       -0.28923
H          3.06735        6.84127        0.60399
H          4.35765        5.65180        0.45887
H          3.50299        6.22297       -0.98134
C          6.23218        3.61392       -2.98227
C          5.56470        2.23337       -2.82768
C          5.15683        1.73391       -4.22449
C          6.59151        1.26474       -2.21290
H          7.10882        3.54897       -3.62672
H          5.54707        4.33329       -3.43054
H          6.56087        4.00138       -2.01807
H          6.02314        1.66601       -4.88233
H          4.69906        0.74680       -4.17420
H          4.44248        2.41762       -4.68153
H          6.18453        0.25773       -2.12968
H          7.49197        1.21018       -2.82444
H          6.88102        1.59548       -1.21576
H         -0.76152       -0.98240       -5.72005
H          1.04869        0.62264       -5.51773
H         -1.53045        0.03132       -4.49538
H         -2.13265       -1.59320       -4.79579
H          2.16331        0.19845       -4.21640
H          2.27569        1.77391       -4.99885
