105
-153.06891519
Cl        -1.09826        3.18967       -2.22148
Pd        -0.07818        1.80070       -0.78225
P          0.97878        0.52898        0.94148
N          0.03902       -0.79392        1.62661
C         -0.13546       -2.16626        1.40961
C          0.16424       -2.83439        0.19314
C         -0.26045       -4.16736        0.00887
C         -0.15251       -4.80321       -1.35631
C         -1.20361       -5.89907       -1.57923
C         -1.12222       -6.93501       -0.45353
C         -1.36267       -6.28624        0.92188
C         -0.87344       -4.86165        1.05504
C         -1.10223       -4.20555        2.25783
C         -0.76228       -2.88842        2.42413
H         -0.98781       -2.38410        3.34796
H         -1.58677       -4.73972        3.05776
H         -2.43642       -6.29783        1.14531
H         -1.83180       -7.75581       -0.62858
H         -2.20310       -5.44651       -1.58638
H         -0.23715       -4.02970       -2.12972
C          0.70286       -2.08075       -0.96352
C         -0.18047       -1.20377       -1.63632
C          0.28163       -0.50217       -2.74870
C          1.56391       -0.68085       -3.19986
C          2.43234       -1.56929       -2.57407
C          3.81169       -1.75752       -3.14610
C          4.41033       -3.12475       -2.78791
C          4.35284       -3.34638       -1.27359
C          2.91226       -3.25844       -0.73530
C          2.00834       -2.27506       -1.44562
H          2.45623       -4.25113       -0.78503
H          4.97343       -2.58907       -0.78318
H          5.44031       -3.21485       -3.16141
H          4.46033       -0.95683       -2.77204
H          1.91050       -0.13005       -4.05768
H         -0.38295        0.18423       -3.24263
N         -1.49088       -1.05657       -1.16822
P         -2.05477        0.55159       -0.72395
C         -2.54540        0.64062        0.99518
C         -2.17422        1.73696        1.73814
C         -2.40265        1.74972        3.10115
C         -3.00087        0.66553        3.72720
C         -3.40703       -0.41301        2.95326
C         -3.17891       -0.42612        1.58893
H         -3.46512       -1.27747        0.99228
H         -3.89037       -1.24989        3.42787
C         -3.23744        0.67867        5.19705
H         -2.09937        2.59811        3.69078
H         -1.68672        2.57105        1.25880
C         -3.32179        1.17724       -1.81560
C         -3.46765        0.60224       -3.05455
C         -4.42266        1.08946       -3.92915
C         -5.23753        2.15249       -3.56206
C         -5.06599        2.72470       -2.30825
C         -4.11048        2.23608       -1.43544
H         -3.96952        2.68084       -0.46315
H         -5.68152        3.56032       -2.02197
C         -6.24571        2.69953       -4.51175
H         -4.53741        0.64839       -4.90450
H         -2.83382       -0.22599       -3.32860
H         -1.76891       -1.67124       -0.41603
H         -0.71465       -0.32158        2.11218
C          1.04685        1.75225        2.26191
C          1.30494        3.07760        2.00580
C          1.32967        3.99129        3.04155
C          1.11178        3.58173        4.34981
C          0.86469        2.23808        4.59454
C          0.83903        1.32755        3.55345
H          0.65002        0.28382        3.74457
H          0.68685        1.90968        5.60432
C          1.10460        4.56957        5.46403
H          1.51938        5.03158        2.83923
H          1.49652        3.39120        0.99427
C          2.67724       -0.02962        0.78299
C          3.57234        0.48546       -0.12357
C          4.89673        0.09416       -0.08937
C          5.34180       -0.81188        0.86334
C          4.43063       -1.31244        1.78289
C          3.10358       -0.92019        1.74085
H          2.39271       -1.29778        2.45929
H          4.76609       -2.00590        2.53488
C          6.77589       -1.20884        0.92261
H          5.59945        0.50553       -0.79373
H          3.24151        1.22480       -0.83089
Cl         1.89908        2.81232       -1.09382
H         -0.89651       -6.88913        1.71142
H         -1.08290       -6.37190       -2.56416
H         -0.12873       -7.40098       -0.46835
H          0.84483       -5.23802       -1.47656
H          4.80919       -4.30973       -1.00607
H          2.92151       -3.01037        0.33229
H          3.77605       -1.62595       -4.23505
H          3.84044       -3.91480       -3.29302
H         -2.46282        1.24697        5.71413
H         -4.20136        1.13273        5.43058
H         -3.23299       -0.33286        5.60560
H         -6.59391        1.93113       -5.20339
H         -7.11691        3.08603       -3.98097
H         -5.82077        3.51415       -5.09971
H          1.76800        5.40884        5.25062
H          0.10081        4.96584        5.62331
H          1.43846        4.11319        6.39694
H          6.88699       -2.22887        1.29331
H          7.23871       -1.16328       -0.06427
H          7.33339       -0.54677        1.58643
