58
-89.86831540
P          1.86982       -0.19985        0.56106
C          1.51801        1.56618        0.63062
C          1.44009        2.25814        1.81736
C          1.12624        3.60473        1.80753
C          0.89532        4.25190        0.60990
C          0.98340        3.55747       -0.57958
C          1.29773        2.21122       -0.56552
H          1.36341        1.64848       -1.48395
H          1.63373        1.75395        2.74889
C          3.46801       -0.50026       -0.19795
C          4.31655        0.55011       -0.46406
C          5.54414        0.30983       -1.05441
C          5.91174       -0.98223       -1.37472
C          5.05644       -2.03285       -1.10659
C          3.82948       -1.78939       -0.51504
H          3.14541       -2.59803       -0.31019
H          4.01395        1.55363       -0.21235
C          1.82195       -1.03541        2.20570
C          0.44938       -1.54098        2.62360
C         -0.62764       -0.46366        2.65070
P         -1.42370       -0.25081        1.00212
C         -1.97205        1.43876        0.72505
C         -2.11582        2.32602        1.76770
C         -2.53093        3.62092        1.51387
C         -2.80459        4.01675        0.21935
C         -2.67231        3.11979       -0.82181
C         -2.25821        1.82665       -0.56371
H         -2.16145        1.10605       -1.35981
H         -1.90567        2.00701        2.77534
C         -2.80288       -1.39405        0.88702
C         -2.58114       -2.72906        0.63784
C         -3.65353       -3.59844        0.54942
C         -4.94008       -3.12414        0.71351
C         -5.15764       -1.78379        0.96457
C         -4.08328       -0.91657        1.05123
H         -4.23642        0.13380        1.24143
H         -1.57322       -3.08556        0.49867
Pd         0.02339       -0.73246       -0.74569
Cl         1.46977       -0.90904       -2.45569
Cl        -1.77153       -1.08286       -2.05175
H         -1.43699       -0.71389        3.34156
H         -0.21525        0.49037        2.97890
H          0.13123       -2.34544        1.94646
H          0.52807       -2.01553        3.61430
H          2.53927       -1.85842        2.15600
H          2.21840       -0.33044        2.93781
H          1.05890        4.14824        2.73566
H          0.80057        4.05910       -1.51553
H          6.21008        1.13013       -1.26634
H          5.34079       -3.04048       -1.36164
H         -2.63760        4.32076        2.32635
H         -2.89064        3.42471       -1.83198
H         -3.48416       -4.64340        0.34784
H         -6.16152       -1.41257        1.08981
H          0.64396        5.29995        0.60382
H          6.86663       -1.17076       -1.83772
H         -3.12476        5.02676        0.02180
H         -5.77603       -3.80079        0.64242
