111
-148.55471818
P         -1.63648       -2.78432       -0.44183
P         -0.52455        0.17204       -0.49510
C         -1.49919       -1.89835       -2.02106
C         -1.08552       -0.58298       -2.03371
C         -0.41807       -4.17463       -0.38511
C          0.60822       -3.94071        0.70294
C         -1.77522       -2.54216       -3.21052
H         -2.05719       -3.58217       -3.19949
C         -1.66337       -1.85694       -4.40801
H         -1.88312       -2.35860       -5.33629
C         -1.26463       -0.53406       -4.41571
H         -1.17245       -0.00232       -5.34842
C         -0.96427        0.10192       -3.22474
H         -0.61819        1.12316       -3.21588
Pd        -1.47833       -1.12611        1.16413
Cl        -2.73057       -2.36488        2.54796
Cl        -1.11322        0.54930        2.61913
C         -1.30111       -5.41960       -0.16439
C         -3.21772       -3.73596       -0.28108
H          0.12277       -3.84337        1.67620
H          1.31886       -4.76815        0.76623
H          1.17322       -3.02295        0.52784
H         -1.27599       -5.68279        0.90192
H         -0.87690       -6.28808       -0.69040
H         -3.50508       -3.66239        0.77561
C         -2.77518       -5.17575       -0.59710
C         -4.32362       -3.19225       -1.16039
H          0.05505       -4.20443       -1.37538
H         -2.87886       -5.35220       -1.67640
H         -3.45149       -5.89809       -0.11477
H         -4.52363       -2.14151       -0.93856
H         -4.05828       -3.25843       -2.21569
H         -5.25245       -3.75024       -1.02206
C         -0.70567        4.71681       -0.34968
C          0.31390        4.07001       -1.09414
C          0.33939        2.68497       -1.10434
C         -0.64073        1.95562       -0.48332
C         -1.68959        2.57584        0.14246
C         -1.76970        3.95750        0.20111
O         -0.63985        6.11722       -0.12178
C          1.40567        4.84033       -1.85324
H          1.14239        2.15170       -1.58439
H         -2.43436        1.95949        0.61561
C         -2.97153        4.60565        0.90579
C          3.69543       -1.31940        0.34453
C          3.13748       -1.48449       -0.94930
C          1.85375       -1.01763       -1.17522
C          1.16406       -0.34879       -0.19903
C          1.73342       -0.10510        1.02172
C          3.01360       -0.54137        1.31476
O          4.91544       -1.96457        0.68064
C          3.88054       -2.19819       -2.08893
H          1.36451       -1.19047       -2.11735
H          1.13514        0.39400        1.76386
C          3.61096       -0.21209        2.69093
C          1.87348        4.04150       -3.09145
C          0.87847        6.19226       -2.36754
C          2.61140        5.05808       -0.92639
C         -4.22855        3.71620        0.77229
C         -2.65006        4.77525        2.39859
C         -3.31785        5.96754        0.27714
C          0.08946        6.48028        1.04410
H          2.55190        4.63690       -3.70208
H          2.40920        3.13623       -2.80980
H          1.02452        3.75874       -3.71340
H         -0.00227        6.04775       -2.99234
H          0.60036        6.84878       -1.54707
H          1.63393        6.70778       -2.96000
H          3.00865        4.10388       -0.58075
H          3.41028        5.58926       -1.44319
H          2.33516        5.63797       -0.04906
H         -4.41773        3.46632       -0.27132
H         -4.12846        2.78956        1.33543
H         -5.10858        4.23024        1.15817
H         -2.42801        3.81115        2.85568
H         -1.78484        5.41709        2.54537
H         -3.49141        5.21673        2.93200
H         -3.50445        5.86063       -0.79090
H         -4.20855        6.39584        0.73613
H         -2.50782        6.68128        0.40396
H          0.45996        5.58983        1.55359
H          0.92952        7.11711        0.76751
H         -0.55574        7.04304        1.71853
C          4.75368       -3.27021        1.22159
C          5.39960       -1.96940       -1.99016
C          3.56441       -3.70082       -2.03803
C          3.43105       -1.64786       -3.46198
C          5.14142       -0.06808        2.61359
C          3.05825        1.13339        3.21540
C          3.22870       -1.31878        3.68576
H          5.62727       -0.90398       -1.98380
H          5.80840       -2.40268       -1.08089
H          5.91991       -2.42262       -2.83358
H          3.87206       -4.13751       -1.09104
H          2.49424       -3.87283       -2.14961
H          4.07679       -4.23499       -2.83772
H          4.04659       -2.05705       -4.26279
H          2.39894       -1.91401       -3.68563
H          3.52042       -0.56222       -3.49257
H          5.61447       -1.00215        2.32169
H          5.41859        0.68933        1.88114
H          5.55659        0.22419        3.57780
H          3.57474        1.43511        4.12627
H          3.19358        1.92262        2.47629
H          1.99842        1.06799        3.45675
H          2.14530       -1.40703        3.76511
H          3.62369       -1.10508        4.67853
H          3.61635       -2.28447        3.37050
H          5.27062       -3.99405        0.59184
H          5.19420       -3.31102        2.21763
H          3.69643       -3.53012        1.28141
