171
-217.84515404
P         -1.60187        0.36335       -0.45988
P          1.68608       -0.34814       -0.31499
C         -0.84897        1.36212       -1.74608
C          1.07313       -1.27845       -1.72193
C          0.02929        0.79617       -2.66271
C          0.67111        1.63678       -3.59159
C          0.37731        2.99040       -3.59798
C         -0.52254        3.52618       -2.70138
C         -1.12606        2.70728       -1.76727
C          1.35769       -2.62107       -1.77943
C          0.84259       -3.39735       -2.79903
C          0.01869       -2.82308       -3.74354
C         -0.28074       -1.47164       -3.70348
C          0.27604       -0.67207       -2.68633
Cl         1.42811        0.34937        2.87663
Cl        -1.68855       -0.40106        2.70809
C         -1.18554       -0.89639       -4.73686
C          1.63341        1.08459       -4.58380
H         -0.75020        4.57939       -2.72497
H         -1.81878        3.11900       -1.05098
H          1.98352       -3.06519       -1.02195
H          1.07521       -4.44854       -2.84903
H          0.86048        3.62714       -4.31974
H         -0.40422       -3.42777       -4.52807
C         -3.73125       -3.36746       -1.86164
C         -2.76874       -3.48018       -0.86514
C         -2.09738       -2.32714       -0.48192
C         -2.39572       -1.12078       -1.06442
C         -3.35011       -1.02405       -2.04640
C         -4.04077       -2.15478       -2.46643
H         -4.27159       -4.24275       -2.16883
H         -1.34303       -2.36505        0.28494
H         -3.55839       -0.05575       -2.46916
C         -4.53746        2.75469        2.04197
C         -3.18446        3.06906        2.11160
C         -2.30689        2.34801        1.31311
C         -2.76644        1.34308        0.49910
C         -4.10351        1.03956        0.45028
C         -5.02033        1.74482        1.21699
H         -5.22978        3.30157        2.65244
H         -1.25004        2.55304        1.34826
H         -4.43522        0.23235       -0.17887
C          4.21175       -2.86625        2.49342
C          2.86655       -3.17862        2.33295
C          2.12603       -2.42059        1.43626
C          2.70583       -1.38371        0.74804
C          4.03374       -1.08553        0.92324
C          4.81655       -1.82276        1.80152
H          4.79941       -3.44215        3.18187
H          1.07765       -2.62358        1.29482
H          4.45996       -0.25891        0.38248
C          3.93571        3.47905       -1.17972
C          2.83584        3.51740       -0.33058
C          2.13860        2.33551       -0.12099
C          2.53924        1.17052       -0.72637
C          3.62977        1.14749       -1.56034
C          4.35918        2.30660       -1.79666
H          4.48263        4.38469       -1.35684
H          1.28062        2.31906        0.52894
H          3.92209        0.21503       -2.01392
Pd        -0.04199       -0.03922        1.21934
C         -1.03644       -5.27157       -0.69573
C         -2.41841       -4.81839       -0.19883
C         -3.45113       -5.91047       -0.53853
C         -2.38806       -4.64616        1.33337
H         -0.73546       -6.20654       -0.22355
H         -1.04832       -5.42526       -1.77448
H         -0.27999       -4.51995       -0.47480
H         -3.21961       -6.83760       -0.01424
H         -4.45463       -5.60336       -0.24425
H         -3.45563       -6.13215       -1.60542
H         -1.61393       -3.94645        1.64399
H         -3.34404       -4.27037        1.69721
H         -2.18819       -5.59635        1.82832
C         -4.91271       -3.10974       -4.62603
C         -5.16846       -2.08323       -3.50594
C         -5.26608       -0.68318       -4.14365
C         -6.50526       -2.39836       -2.81039
H         -3.95078       -2.93009       -5.10458
H         -4.90951       -4.12855       -4.24114
H         -5.68553       -3.04934       -5.39218
H         -5.50802        0.07352       -3.39780
H         -4.32964       -0.40502       -4.62615
H         -6.04926       -0.65732       -4.90120
H         -6.49691       -3.39792       -2.37688
H         -6.69806       -1.68788       -2.00665
H         -7.33487       -2.34511       -3.51514
C         -1.88851        5.21218        2.24419
C         -2.62263        4.13524        3.06260
C         -1.63623        3.46499        4.03864
C         -3.73584        4.81616        3.88114
H         -2.56204        5.67648        1.52414
H         -1.49287        5.99423        2.89200
H         -1.05362        4.78336        1.69348
H         -0.80047        3.00972        3.50872
H         -1.22911        4.18996        4.74303
H         -2.13316        2.68018        4.60834
H         -4.45292        5.31487        3.22933
H         -4.27041        4.09148        4.49497
H         -3.31835        5.56924        4.54941
C         -6.99581        1.52417       -0.31164
C         -6.50550        1.36363        1.13969
C         -7.37221        2.25354        2.05072
C         -6.67331       -0.10231        1.58213
H         -6.44485        0.87388       -0.98996
H         -8.05313        1.27388       -0.39655
H         -6.86295        2.55105       -0.65156
H         -8.42303        1.97331        1.97819
H         -7.07598        2.15248        3.09464
H         -7.29027        3.30263        1.76701
H         -6.30384       -0.24179        2.59783
H         -7.72150       -0.39979        1.55907
H         -6.12084       -0.77870        0.93076
C          1.03186       -3.64337        3.97142
C          2.16265       -4.27910        3.13938
C          3.13240       -4.99598        4.09782
C          1.57121       -5.32024        2.17274
H          0.51866       -4.39368        4.57237
H          1.43012       -2.88406        4.64394
H          0.29067       -3.16338        3.33368
H          2.61507       -5.77246        4.66126
H          3.94514       -5.47231        3.54979
H          3.56093       -4.29787        4.81666
H          1.07579       -6.12355        2.71776
H          0.83695       -4.86604        1.51047
H          2.35270       -5.76133        1.55436
C          6.96720       -2.29373        3.08264
C          6.29737       -1.45634        1.97620
C          6.41379        0.03243        2.35773
C          7.03665       -1.71096        0.65083
H          8.00994       -2.00284        3.20954
H          6.46514       -2.15082        4.03937
H          6.95079       -3.35544        2.83742
H          7.45379        0.31197        2.52507
H          6.02035        0.67790        1.57349
H          5.85672        0.23929        3.27123
H          8.09237       -1.45398        0.73559
H          6.96510       -2.76024        0.36511
H          6.61039       -1.11665       -0.15582
C          1.05193        5.26693       -0.27151
C          2.37065        4.80386        0.36740
C          3.41032        5.93322        0.23241
C          2.15096        4.52995        1.86912
H          0.67648        6.16915        0.21095
H          1.19390        5.48302       -1.33007
H          0.28890        4.49455       -0.18783
H          3.08987        6.82048        0.77843
H          4.37527        5.62551        0.63505
H          3.54591        6.22316       -0.80922
H          1.86405        5.44122        2.39357
H          1.36342        3.79612        2.03293
H          3.06299        4.14902        2.32799
C          5.21048        1.85755       -4.11515
C          5.61302        2.24765       -2.68283
C          6.58591        1.19633       -2.11610
C          6.34257        3.60426       -2.73269
H          4.71320        0.88854       -4.13460
H          4.53068        2.59715       -4.53692
H          6.08471        1.79702       -4.76315
H          7.50624        1.16156       -2.69883
H          6.84812        1.43067       -1.08451
H          6.14540        0.20048       -2.13436
H          6.64980        3.92078       -1.73603
H          7.23921        3.53823       -3.34889
H          5.70609        4.37770       -3.16211
H         -1.51174        0.10960       -4.46981
H          1.11616        0.74343       -5.48121
H         -2.07863       -1.51122       -4.85135
H         -0.68873       -0.84530       -5.70666
H          2.18410        0.23906       -4.16901
H          2.36006        1.83898       -4.88648
