171
-217.84734486
P         -1.60492        0.43019       -0.36101
P          1.61998       -0.30640       -0.22530
C         -0.83133        1.47916       -1.60087
C          0.99084       -1.18644       -1.65953
C          0.03439        0.94611       -2.54970
C          0.70181        1.82304       -3.42652
C          0.45458        3.18311       -3.34361
C         -0.42688        3.68977       -2.41264
C         -1.06237        2.83196       -1.53707
C          1.22617       -2.53672       -1.74566
C          0.72679       -3.26200       -2.80974
C         -0.02288       -2.62671       -3.77697
C         -0.27403       -1.26642       -3.70711
C          0.25634       -0.52280       -2.63528
Cl         1.53191        0.40839        2.89274
Cl        -1.70730       -0.29998        2.83006
C         -1.08011       -0.61342       -4.77506
C          1.66760        1.31931       -4.44146
H         -0.61527        4.74976       -2.36309
H         -1.74477        3.22174       -0.79984
H          1.80464       -3.02518       -0.97798
H          0.92239       -4.31920       -2.88350
H          0.96564        3.84836       -4.01909
H         -0.42318       -3.18973       -4.60322
C         -3.53894       -3.38073       -1.83570
C         -2.63793       -3.44990       -0.77990
C         -2.03024       -2.27114       -0.36992
C         -2.31546       -1.08431       -0.99753
C         -3.20967       -1.03032       -2.03810
C         -3.84532       -2.18614       -2.47682
H         -4.03596       -4.27543       -2.16003
H         -1.34577       -2.27338        0.46103
H         -3.41961       -0.07490       -2.48822
C         -4.77019        2.64594        2.02005
C         -3.44390        3.04783        2.13655
C         -2.49186        2.37831        1.37942
C         -2.85482        1.34064        0.55796
C         -4.16631        0.94783        0.46670
C         -5.15475        1.59619        1.19345
H         -5.51989        3.15700        2.59253
H         -1.45326        2.65550        1.44551
H         -4.42153        0.11670       -0.16718
C          4.24212       -3.06527        2.24503
C          2.86355       -3.22763        2.29965
C          2.08151       -2.38948        1.51522
C          2.66047       -1.40644        0.75068
C          4.02315       -1.24201        0.73344
C          4.84580       -2.07756        1.47744
H          4.86594       -3.72571        2.81830
H          1.00997       -2.48639        1.50930
H          4.44073       -0.44960        0.13938
C          3.90808        3.45664       -1.25088
C          2.85093        3.53579       -0.35341
C          2.16536        2.36545       -0.05598
C          2.51178        1.18360       -0.66135
C          3.54264        1.12615       -1.56705
C          4.27128        2.26949       -1.87498
H          4.47885        4.34367       -1.45453
H          1.35964        2.36434        0.65698
H          3.77509        0.17982       -2.02501
Pd        -0.06510        0.07518        1.35050
C         -0.83026       -5.08499       -0.19963
C         -2.32420       -4.75478       -0.03499
C         -3.14742       -5.93773       -0.57944
C         -2.65984       -4.57568        1.45812
H         -0.20369       -4.26602        0.14928
H         -0.56184       -5.97921        0.36255
H         -0.59159       -5.26225       -1.24751
H         -2.92726       -6.11802       -1.63150
H         -2.91649       -6.85233       -0.03337
H         -4.21637       -5.75216       -0.47596
H         -3.71571       -4.33943        1.58826
H         -2.44529       -5.48516        2.01895
H         -2.08350       -3.76555        1.90232
C         -6.26769       -2.57010       -2.97135
C         -4.91234       -2.16575       -3.58049
C         -4.52674       -3.15982       -4.69206
C         -5.05924       -0.76465       -4.20588
H         -6.22839       -3.57550       -2.55356
H         -6.54891       -1.88674       -2.17019
H         -7.05562       -2.55107       -3.72406
H         -3.55021       -2.91602       -5.10839
H         -4.48280       -4.18085       -4.31535
H         -5.25397       -3.13754       -5.50352
H         -5.37792       -0.03392       -3.46290
H         -4.11943       -0.42664       -4.64048
H         -5.80627       -0.77209       -4.99948
C         -2.51214        5.36894        2.19182
C         -2.99954        4.19355        3.05669
C         -1.85359        3.70567        3.96576
C         -4.15159        4.68412        3.95458
H         -1.68456        5.06714        1.55192
H         -3.31345        5.73249        1.54880
H         -2.17277        6.19790        2.81262
H         -1.55173        4.48478        4.66536
H         -2.16506        2.83499        4.54233
H         -0.97479        3.42433        3.38747
H         -4.96643        5.09719        3.36050
H         -4.54472        3.87082        4.56436
H         -3.80858        5.46854        4.62914
C         -7.56263        1.94980        1.94284
C         -6.60754        1.11607        1.06780
C         -6.69232       -0.35596        1.51405
C         -7.05664        1.23693       -0.40057
H         -8.58875        1.59715        1.83924
H         -7.29401        1.87631        2.99649
H         -7.54414        3.00018        1.65275
H         -6.07409       -0.99690        0.88632
H         -6.34954       -0.46597        2.54264
H         -7.71696       -0.72288        1.45742
H         -8.09126        0.91592       -0.52019
H         -6.98096        2.26888       -0.74267
H         -6.43989        0.62217       -1.05497
C          0.72708       -4.10310        3.36292
C          2.24424       -4.31532        3.18908
C          2.88816       -4.27820        4.58918
C          2.48715       -5.68809        2.54029
H          0.20330       -4.21971        2.41656
H          0.30948       -4.83237        4.05684
H          0.51417       -3.10851        3.75476
H          2.41365       -4.99949        5.25433
H          3.94959       -4.51824        4.55057
H          2.78157       -3.28894        5.03389
H          2.03795       -5.73014        1.54813
H          3.55342       -5.88551        2.43265
H          2.05473       -6.48732        3.14196
C          7.01535       -3.23155        0.97444
C          6.37363       -1.92726        1.48165
C          6.84987       -1.63536        2.91642
C          6.83272       -0.77117        0.57103
H          8.10164       -3.14709        0.94788
H          6.76246       -4.07392        1.61721
H          6.66991       -3.46357       -0.03287
H          6.59456       -2.45072        3.59219
H          7.93089       -1.50086        2.94928
H          6.38429       -0.72681        3.29792
H          7.91837       -0.67577        0.58341
H          6.52865       -0.94154       -0.46149
H          6.41456        0.17886        0.90336
C          2.30998        5.95458       -0.76997
C          2.49902        4.87341        0.31104
C          3.64115        5.27878        1.25848
C          1.19320        4.77131        1.12350
H          3.22895        6.12602       -1.32876
H          1.53755        5.65857       -1.47877
H          2.01249        6.90345       -0.32391
H          4.57844        5.39692        0.71561
H          3.41961        6.22261        1.75635
H          3.79229        4.51885        2.02497
H          0.92440        5.73793        1.54917
H          0.36921        4.44466        0.48998
H          1.29545        4.06727        1.94892
C          5.35994        3.33722       -3.88139
C          5.48952        2.23765       -2.80944
C          5.62214        0.87765       -3.52270
C          6.76046        2.48130       -1.97596
H          5.34064        4.33040       -3.43498
H          6.20066        3.30452       -4.57423
H          4.44514        3.21258       -4.45889
H          5.78495        0.07170       -2.80769
H          4.72805        0.64919       -4.10193
H          6.46924        0.88177       -4.20849
H          7.65075        2.45755       -2.60412
H          6.72489        3.45086       -1.48010
H          6.86919        1.71732       -1.20681
H         -1.52904        0.31605       -4.42209
H          2.57061        1.92955       -4.45009
H         -1.88834       -1.26531       -5.10712
H         -0.46192       -0.38245       -5.64348
H          1.23410        1.35049       -5.44198
H          1.96804        0.29155       -4.23365
