59
-75.81167771
Cl         1.57655        0.67182        2.30924
P          1.61559       -0.14126       -0.81681
P         -1.59414       -0.16955       -0.83935
C          0.63480       -0.09155       -2.38050
H          0.37349        0.94835       -2.59339
H          1.26453       -0.45016       -3.20113
C         -0.60194       -0.92272       -2.19900
H         -0.34470       -1.94946       -1.92743
H         -1.21674       -0.96308       -3.10366
C          2.74912       -1.61110       -0.90445
H          2.26988       -2.34234       -1.56679
C          2.93835        1.15599       -0.80392
H          3.31084        1.19655        0.22723
C         -3.03954       -1.21144       -0.32218
H         -3.12931       -1.08182        0.76323
C         -2.51521        1.27836       -1.55352
H         -2.35917        1.18436       -2.63682
C          4.03964       -1.03468       -1.54210
H          4.89327       -1.29848       -0.90246
H          4.24378       -1.52462       -2.50569
C          3.99244        0.51224       -1.71927
H          3.74105        0.75991       -2.76094
H          4.98189        0.96232       -1.54278
C         -4.22832       -0.54210       -1.03309
H         -4.36968       -1.02022       -2.01223
H         -5.16025       -0.72672       -0.47716
C         -3.98877        0.97830       -1.22728
H         -4.27612        1.50683       -0.31046
H         -4.64454        1.38193       -2.01352
C          3.00343       -2.23003        0.46920
H          3.29984       -1.43233        1.16326
H          3.87695       -2.89382        0.40149
C          2.47234        2.54117       -1.23868
H          3.35187        3.16116       -1.46122
H          1.93411        2.45770       -2.19072
C         -2.87269       -2.68979       -0.65316
H         -3.83349       -3.20102       -0.50077
H         -2.65922       -2.79278       -1.72492
C         -2.00412        2.63809       -1.07980
H         -0.94759        2.72880       -1.36360
H         -2.51862        3.42838       -1.64404
C          1.82401       -3.00763        1.03023
H          1.50492       -3.79271        0.34213
H          0.96657       -2.36042        1.20774
H          2.06570       -3.48459        1.98286
C          1.61087        3.22746       -0.19070
H          1.24767        4.20116       -0.52715
H          2.16722        3.38518        0.73521
H          0.74310        2.62057        0.06594
C         -1.79121       -3.36408        0.17427
H         -0.82329       -2.89042        0.01468
H         -1.68356       -4.42292       -0.07177
H         -2.00866       -3.29341        1.24174
C         -2.16221        2.89975        0.41169
H         -3.21030        2.97986        0.70290
H         -1.72785        2.09827        1.00763
H         -1.67680        3.83013        0.71571
Cl        -1.61977        0.04319        2.38304
Pd         0.00462        0.04787        0.83579
