171
-217.84901258
P         -1.61047        0.44106       -0.33302
P          1.59367       -0.29096       -0.23401
C         -0.83869        1.50018       -1.56664
C          0.96030       -1.16047       -1.67104
C          0.01406        0.98367       -2.53672
C          0.67603        1.87700       -3.40104
C          0.43872        3.23629       -3.28353
C         -0.42619        3.72715       -2.32906
C         -1.05670        2.85301       -1.46611
C          1.18758       -2.51130       -1.76500
C          0.69322       -3.22391       -2.84012
C         -0.03809       -2.57402       -3.81202
C         -0.28144       -1.21256       -3.73322
C          0.23776       -0.48328       -2.64614
Cl         1.50764        0.51243        2.93585
Cl        -1.63021       -0.22635        2.92698
C         -1.06338       -0.54173       -4.80803
C          1.63335        1.39483       -4.43418
H         -0.60443        4.78715       -2.25052
H         -1.72231        3.22984       -0.70673
H          1.75559       -3.00868       -0.99500
H          0.87969       -4.28230       -2.92009
H          0.94713        3.91382       -3.94873
H         -0.43008       -3.12683       -4.64902
C         -3.40408       -3.44864       -1.78986
C         -2.53250       -3.47173       -0.70798
C         -1.97565       -2.26733       -0.30031
C         -2.27579       -1.10055       -0.95841
C         -3.14118       -1.09279       -2.02485
C         -3.73079       -2.27488       -2.45843
H         -3.85967       -4.36458       -2.11580
H         -1.31853       -2.23432        0.55170
H         -3.36203       -0.15376       -2.50309
C         -4.85578        2.63571        1.95224
C         -3.53227        3.00309        2.16027
C         -2.55147        2.33400        1.43918
C         -2.89181        1.33691        0.55857
C         -4.20527        0.98457        0.36974
C         -5.21909        1.63255        1.06302
H         -5.62580        3.13617        2.51015
H         -1.51017        2.56842        1.57831
H         -4.43252        0.18682       -0.31421
C          4.20049       -3.09334        2.21124
C          2.82158       -3.16768        2.35942
C          2.03998       -2.32144        1.58347
C          2.62293       -1.40862        0.73844
C          3.98929       -1.33221        0.62691
C          4.80891       -2.18277        1.35739
H          4.82018       -3.76239        2.77924
H          0.96715       -2.35580        1.65033
H          4.41390       -0.59667       -0.03150
C          3.95582        3.41762       -1.29706
C          2.91969        3.51974       -0.37774
C          2.21432        2.36492       -0.06600
C          2.51903        1.17648       -0.68089
C          3.52732        1.09792       -1.61064
C          4.27715        2.22405       -1.93146
H          4.54312        4.29140       -1.51065
H          1.42530        2.38114        0.66526
H          3.72331        0.14953       -2.08105
Pd        -0.05389        0.12667        1.36834
C         -0.68721       -5.02435       -0.02456
C         -2.19953       -4.75418        0.06684
C         -2.94629       -5.97676       -0.49988
C         -2.61154       -4.57223        1.54012
H         -0.41103       -5.90432        0.55592
H         -0.39121       -5.19735       -1.05837
H         -0.11088       -4.17961        0.34818
H         -2.69924       -6.87566        0.06491
H         -4.02581       -5.83803       -0.44367
H         -2.67350       -6.15566       -1.53979
H         -2.09708       -3.72786        1.99638
H         -3.68263       -4.38741        1.61877
H         -2.37825       -5.46215        2.12437
C         -6.10993       -2.80231       -3.03711
C         -4.76133       -2.31122       -3.59617
C         -4.27889       -3.27323       -4.69777
C         -4.97487       -0.91701       -4.21735
H         -6.02570       -3.80764       -2.62604
H         -6.45935       -2.14464       -2.24165
H         -6.87133       -2.82316       -3.81661
H         -3.30651       -2.96776       -5.08125
H         -4.18300       -4.29104       -4.32178
H         -4.97955       -3.29249       -5.53234
H         -5.35033       -0.21098       -3.47699
H         -4.04767       -0.52213       -4.62991
H         -5.70302       -0.96211       -5.02710
C         -3.63575        3.60104        4.58858
C         -3.18951        4.08250        3.19621
C         -3.91834        5.39001        2.83577
C         -1.67545        4.36601        3.24019
H         -3.14115        2.66464        4.84633
H         -3.38900        4.33633        5.35418
H         -4.71125        3.43095        4.62203
H         -4.99961        5.25882        2.84754
H         -3.67189        6.18133        3.54353
H         -3.63247        5.72719        1.83954
H         -1.11577        3.47359        3.51996
H         -1.31750        4.71144        2.27108
H         -1.44685        5.14040        3.97219
C         -6.87739        0.13353       -0.15370
C         -6.69689        1.25492        0.88908
C         -7.48662        2.48966        0.41764
C         -7.25520        0.76228        2.23655
H         -7.93085       -0.11974       -0.27179
H         -6.50096        0.44148       -1.12896
H         -6.35312       -0.77265        0.14945
H         -7.08772        2.86426       -0.52490
H         -8.53799        2.24570        0.26614
H         -7.43398        3.29658        1.14757
H         -7.19638        1.53971        2.99736
H         -8.29981        0.46632        2.14167
H         -6.69082       -0.09875        2.59418
C          0.69953       -3.89689        3.55733
C          2.20487       -4.16051        3.35523
C          2.89672       -4.01867        4.72521
C          2.39497       -5.58995        2.82076
H          0.14473       -4.06570        2.63691
H          0.28626       -4.56428        4.31330
H          0.52229       -2.87228        3.88426
H          2.43673       -4.67556        5.46325
H          3.95348       -4.27577        4.66999
H          2.81787       -2.99461        5.08974
H          1.95952       -6.32263        3.50000
H          1.91727       -5.70416        1.84795
H          3.45215       -5.82625        2.70298
C          6.80626       -1.04138        0.26977
C          6.33975       -2.13402        1.25180
C          6.85806       -3.49438        0.75092
C          6.93536       -1.82757        2.63824
H          7.89405       -1.01506        0.20723
H          6.42314       -1.22659       -0.73344
H          6.47041       -0.05634        0.59323
H          6.59523       -4.29633        1.43979
H          6.42906       -3.73479       -0.22172
H          7.94309       -3.48487        0.64854
H          6.55706       -0.87837        3.01725
H          6.67880       -2.60189        3.36018
H          8.02229       -1.76346        2.59052
C          2.41797        5.94717       -0.79085
C          2.60994        4.86612        0.28985
C          3.78155        5.25170        1.20927
C          1.32141        4.79364        1.13247
H          1.62318        5.66471       -1.48023
H          2.15072        6.90361       -0.34184
H          3.32690        6.09742       -1.37173
H          3.93598        4.49083        1.97416
H          4.70802        5.35066        0.64444
H          3.58984        6.20074        1.70960
H          1.08557        5.76631        1.56388
H          0.47394        4.48677        0.51997
H          1.42750        4.08741        1.95561
C          5.36611        3.28288       -3.94482
C          5.47656        2.16523       -2.88921
C          5.55165        0.81143       -3.62232
C          6.76937        2.35632       -2.07600
H          4.43783        3.19816       -4.50772
H          5.38993        4.27028       -3.48604
H          6.19286        3.23013       -4.65306
H          6.38522        0.79781       -4.32439
H          5.70229       -0.00892       -2.92130
H          4.63986        0.61913       -4.18680
H          6.86827        1.57745       -1.32071
H          7.64697        2.31498       -2.72089
H          6.77275        3.31868       -1.56502
H         -1.84669       -1.19673       -5.18935
H          2.54953        1.98450       -4.41323
H         -0.42075       -0.27314       -5.64728
H         -1.54108        0.36831       -4.44229
H          1.20504        1.48002       -5.43380
H          1.91023        0.35264       -4.27042
