111
-148.55510266
P         -2.65354       -2.01672        0.02738
P          0.07695       -0.45796       -0.34306
C         -1.82523       -2.01176       -1.58925
C         -0.61868       -1.36338       -1.73594
C         -3.64101       -3.57142        0.22188
C         -3.36134       -4.24065        1.54915
C         -2.39912       -2.64477       -2.67401
H         -3.35299       -3.13349       -2.56386
C         -1.75483       -2.63640       -3.89909
H         -2.20235       -3.13249       -4.74483
C         -0.54163       -1.99092       -4.04005
H         -0.04048       -1.98269       -4.99399
C          0.02531       -1.34655       -2.95551
H          0.96566       -0.82690       -3.05221
Pd        -1.02651       -1.30541        1.51152
Cl        -2.42811       -1.73946        3.20242
Cl         0.66361       -0.54398        2.77521
C         -5.09292       -3.07099        0.06994
C         -3.99656       -0.74948        0.14428
H         -3.92192       -5.17239        1.65574
H         -2.29905       -4.46825        1.66433
H         -3.64943       -3.58842        2.37486
H         -5.76615       -3.71565        0.65389
H         -5.41773       -3.17461       -0.97584
H         -3.72212       -0.07621        0.96759
C         -5.24026       -1.58652        0.50925
C         -4.12454        0.02342       -1.15111
H         -3.35885       -4.23783       -0.60401
H         -6.13308       -1.13444        0.05333
H         -5.41048       -1.54566        1.59523
H         -4.91598        0.77454       -1.09431
H         -3.19213        0.53445       -1.40338
H         -4.36414       -0.64873       -1.97718
C         -1.29522        3.86546       -0.80482
C         -1.67634        3.13114        0.34635
C         -1.24762        1.82046        0.45919
C         -0.42497        1.25805       -0.48152
C          0.02895        1.99599       -1.54324
C         -0.35336        3.31697       -1.71225
O         -1.88080        5.13325       -1.06435
C         -2.56553        3.72280        1.45142
H         -1.55875        1.22148        1.29505
H          0.68649        1.51900       -2.24932
C          0.22983        4.11977       -2.88571
C          4.59837       -0.83410        0.04846
C          3.86385       -1.86907       -0.58560
C          2.48739       -1.73886       -0.67371
C          1.85718       -0.60178       -0.24053
C          2.57404        0.44463        0.27694
C          3.95128        0.37657        0.40405
O          5.97046       -1.02510        0.36163
C          4.53295       -3.13130       -1.15244
H          1.88339       -2.53222       -1.07881
H          2.03346        1.31679        0.60252
C          4.70767        1.59124        0.96357
C         -4.04181        3.47422        1.10651
C         -2.26181        3.05683        2.81360
C         -2.30556        5.23057        1.62036
C          0.34882        5.61343       -2.53198
C          1.65359        3.62646       -3.23023
C         -0.66455        3.93619       -4.12108
C         -3.07111        5.07469       -1.84036
H         -4.30968        3.93629        0.15961
H         -4.24366        2.40693        1.02294
H         -4.69635        3.88111        1.87682
H         -2.78868        3.56692        3.61959
H         -2.58040        2.01563        2.83450
H         -1.19547        3.09395        3.03472
H         -2.88935        5.63908        2.44484
H         -1.25194        5.41734        1.82526
H         -2.57352        5.78230        0.72272
H          0.94619        5.74756       -1.63076
H          0.82286        6.17092       -3.33944
H         -0.62686        6.05862       -2.35433
H          2.11723        4.27289       -3.97507
H          2.28828        3.62824       -2.34483
H          1.64363        2.61918       -3.64378
H         -0.72744        2.88400       -4.39791
H         -1.67556        4.28886       -3.93208
H         -0.26976        4.48703       -4.97441
H         -2.93576        5.64110       -2.76154
H         -3.31790        4.04007       -2.08217
H         -3.89276        5.52440       -1.28313
C          6.19532       -1.60824        1.63908
C          5.95156       -2.82509       -1.66650
C          4.58652       -4.21238       -0.06253
C          3.72951       -3.68025       -2.35376
C          4.77073        1.48437        2.49480
C          6.12788        1.68218        0.37673
C          3.98287        2.90472        0.59006
H          6.39959       -3.70473       -2.12802
H          5.92687       -2.02794       -2.40873
H          6.60682       -2.50830       -0.85899
H          5.16461       -3.87871        0.79579
H          3.58387       -4.45585        0.28808
H          5.04331       -5.12638       -0.44119
H          2.76171       -4.07372       -2.04668
H          3.56300       -2.90107       -3.09720
H          4.26646       -4.49555       -2.83811
H          5.28984        2.34008        2.92562
H          3.76762        1.44800        2.91917
H          5.29272        0.58260        2.80566
H          6.73245        0.82594        0.66478
H          6.09171        1.71434       -0.71169
H          6.63945        2.57876        0.72591
H          3.02342        2.99624        1.09689
H          3.81059        2.95870       -0.48428
H          4.57906        3.77061        0.87699
H          6.75002       -2.53927        1.52368
H          6.79081       -0.93110        2.25115
H          5.24593       -1.80901        2.13727
