105
-153.07167971
Cl        -2.35080        3.18332        0.06589
Pd        -0.50122        1.94168        0.36009
P          1.38208        0.67757        1.00143
N          1.68344       -0.99551        0.65823
C          0.92462       -2.04087        1.17286
C          0.56208       -3.08673        0.28499
C         -0.30325       -4.10517        0.71734
C         -0.77353       -5.12866       -0.28528
C         -1.45507       -6.35397        0.34499
C         -2.43789       -5.93126        1.44282
C         -1.71742       -5.14747        2.55194
C         -0.78144       -4.08611        2.03140
C         -0.40880       -3.05048        2.88615
C          0.42234       -2.04150        2.47027
H          0.68608       -1.23693        3.13155
H         -0.79196       -3.04498        3.89260
H         -2.44972       -4.67855        3.22169
H         -3.22157       -5.30099        1.00371
H         -1.96342       -6.95582       -0.42146
H         -1.46672       -4.63737       -0.97868
C          0.83832       -2.82014       -1.15355
C          0.00020       -1.84800       -1.75801
C          0.36605       -1.29704       -2.98174
C          1.52269       -1.70024       -3.59965
C          2.36323       -2.65103       -3.02380
C          3.62783       -3.02951       -3.75289
C          4.68628       -3.68856       -2.85321
C          4.05323       -4.75700       -1.95453
C          2.96205       -4.14675       -1.06028
C          2.02931       -3.21101       -1.78663
H          2.37258       -4.93965       -0.58361
H          4.81988       -5.25972       -1.34821
H          5.15778       -2.92146       -2.22598
H          4.04294       -2.13383       -4.23261
H          1.79757       -1.27145       -4.54851
H         -0.26471       -0.54966       -3.42645
N         -1.10973       -1.41927       -1.03671
P         -1.58555        0.23848       -0.84792
C         -3.01815        0.16810        0.23330
C         -4.24394        0.66317       -0.14082
C         -5.30690        0.59878        0.74104
C         -5.14992        0.03184        1.99903
C         -3.90122       -0.45494        2.36129
C         -2.83836       -0.38764        1.47903
H         -1.86693       -0.76436        1.75950
H         -3.76429       -0.88328        3.33952
C         -6.28708       -0.00913        2.95951
H         -6.26678        0.99640        0.45884
H         -4.36101        1.11392       -1.11252
C         -1.98258        0.91682       -2.45537
C         -1.32561        2.02166       -2.94448
C         -1.62235        2.49078       -4.21079
C         -2.57702        1.85701       -4.99461
C         -3.21443        0.73143       -4.49046
C         -2.91628        0.26250       -3.22333
H         -3.39610       -0.62195       -2.83324
H         -3.94193        0.22080       -5.09799
C         -2.87707        2.34763       -6.36820
H         -1.11000        3.35411       -4.59982
H         -0.57680        2.51025       -2.34232
H         -1.20045       -1.79868       -0.10539
H          1.84881       -1.01977       -0.33764
C          1.67245        0.97697        2.74222
C          0.68244        1.48134        3.55254
C          0.92426        1.65756        4.90238
C          2.15328        1.31766        5.45124
C          3.13901        0.80826        4.61679
C          2.89552        0.63179        3.26616
H          3.65016        0.21451        2.61736
H          4.09787        0.54776        5.03128
C          2.42153        1.53194        6.90030
H          0.15668        2.06286        5.53935
H         -0.27708        1.73435        3.13119
C          2.52519        1.57519       -0.05405
C          2.41715        1.37231       -1.41063
C          3.25982        2.04638       -2.27540
C          4.21734        2.92399       -1.78482
C          4.30205        3.12235       -0.41285
C          3.45975        2.44657        0.45054
H          3.51593        2.60796        1.51446
H          5.02901        3.81531       -0.02493
C          5.10553        3.67420       -2.71522
H          3.17526        1.89608       -3.33812
H          1.67246        0.68937       -1.78868
Cl         0.64467        3.69741        1.18021
H         -1.14479       -5.83906        3.18131
H         -0.69114       -7.01260        0.77677
H         -2.96001       -6.80560        1.85658
H          0.07853       -5.44195       -0.90111
H          3.61223       -5.54244       -2.58098
H          3.42762       -3.59563       -0.23431
H          3.36674       -3.70764       -4.57405
H          5.49968       -4.11782       -3.45521
H         -6.19844       -0.85786        3.63914
H         -6.31889        0.90105        3.55990
H         -7.24041       -0.10162        2.43737
H         -3.90504        2.11849       -6.65248
H         -2.74863        3.42877       -6.43655
H         -2.21395        1.88269       -7.09899
H          2.82443        2.53034        7.07566
H          1.50892        1.42907        7.48906
H          3.14270        0.80629        7.27899
H          6.07086        3.88576       -2.25323
H          5.29277        3.10443       -3.62648
H          4.65278        4.62502       -2.99956
