105
-153.06918841
Cl        -1.11973        3.38595       -1.95471
Pd        -0.07154        1.83079       -0.72164
P          0.97133        0.49100        0.95020
N         -0.01910       -0.81520        1.59237
C         -0.19087       -2.18422        1.34955
C          0.10745       -2.82518        0.11830
C         -0.28929       -4.16319       -0.08302
C         -0.22528       -4.76414       -1.46670
C         -0.10483       -6.29358       -1.44145
C         -1.24025       -6.89520       -0.60604
C         -1.22088       -6.35548        0.83592
C         -0.85551       -4.89415        0.96484
C         -1.09355       -4.26092        2.17812
C         -0.79651       -2.93463        2.35652
H         -1.02382       -2.44968        3.29018
H         -1.53946       -4.82372        2.98080
H         -2.19798       -6.51466        1.30955
H         -2.20137       -6.64843       -1.07454
H         -0.09794       -6.70795       -2.45949
H         -1.13964       -4.47967       -2.00152
C          0.64480       -2.05060       -1.02395
C         -0.22500       -1.13978       -1.66837
C          0.24555       -0.41854       -2.76441
C          1.52292       -0.60834       -3.22543
C          2.37742       -1.52909       -2.62761
C          3.75096       -1.72801       -3.20972
C          4.32072       -3.11882       -2.89776
C          4.26429       -3.38739       -1.39095
C          2.82806       -3.28617       -0.84390
C          1.94431       -2.25774       -1.51757
H          2.35005       -4.26802       -0.92300
H          4.90263       -2.65921       -0.87948
H          5.34695       -3.21966       -3.27876
H          4.41748       -0.95404       -2.81152
H          1.87618       -0.04145       -4.06995
H         -0.40880        0.29095       -3.23897
N         -1.52814       -0.97777       -1.18775
P         -2.08216        0.63472       -0.74434
C         -2.58138        0.71254        0.97406
C         -3.22162       -0.35726        1.55524
C         -3.44718       -0.36047        2.92005
C         -3.04374        0.71058        3.70576
C         -2.42249        1.79068        3.09535
C         -2.19586        1.79365        1.73212
H         -1.69848        2.62786        1.26344
H         -2.09748        2.62184        3.69781
C         -3.23062        0.68388        5.18264
H         -3.92450       -1.20562        3.38607
H         -3.51170       -1.20043        0.94891
C         -3.33366        1.27739       -1.84379
C         -4.12815        2.32954       -1.45724
C         -5.07549        2.82888       -2.33289
C         -5.22528        2.28132       -3.60047
C         -4.41804        1.21225       -3.96670
C         -3.47096        0.71452       -3.08938
H         -2.84028       -0.11568       -3.36469
H         -4.53478        0.77276       -4.94252
C         -6.25972        2.80491       -4.53506
H         -5.70341        3.65169       -2.03666
H         -3.99969        2.75916       -0.47642
H         -1.80585       -1.59166       -0.43497
H         -0.77936       -0.34095        2.06564
C          1.05710        1.68617        2.29368
C          1.37544        3.00314        2.06364
C          1.41383        3.89938        3.11416
C          1.13573        3.48211        4.40862
C          0.84480        2.14287        4.62896
C          0.80633        1.24966        3.57343
H          0.57634        0.21052        3.74366
H          0.64501        1.80415        5.63118
C          1.19309        4.44266        5.54492
H          1.66231        4.93142        2.93451
H          1.60129        3.32265        1.06081
C          2.65385       -0.11385        0.79797
C          3.04358       -1.04455        1.73282
C          4.35762       -1.47823        1.77428
C          5.29206       -0.97905        0.87750
C          4.88391       -0.03158       -0.05127
C          3.57232        0.40057       -0.08515
H          3.26908        1.16855       -0.77421
H          5.60511        0.37800       -0.73777
C          6.71248       -1.42244        0.93641
H          4.66485       -2.20377        2.50783
H          2.31457       -1.42164        2.43309
Cl         1.93866        2.76484       -1.06328
H         -0.51056       -6.93843        1.43443
H          0.85959       -6.57393       -0.99978
H         -1.18567       -7.99295       -0.61220
H          0.58930       -4.31876       -2.04805
H          4.70101       -4.36822       -1.15616
H          2.84713       -3.07340        0.23112
H          3.71579       -1.56031       -4.29371
H          3.73150       -3.87970       -3.42500
H         -3.39638        1.68775        5.57614
H         -4.09031        0.07273        5.46084
H         -2.34952        0.27068        5.67573
H         -7.20405        2.27476       -4.40428
H         -6.44302        3.86667       -4.36453
H         -5.94776        2.68641       -5.57364
H          0.92522        5.44989        5.22275
H          0.50220        4.15495        6.33867
H          2.19714        4.48070        5.96955
H          7.18691       -1.35738       -0.04385
H          7.28322       -0.80148        1.62811
H          6.78797       -2.45766        1.27233
