115
-277.94733518
P         -1.92561       -0.64618       -0.09364
P          1.76050        0.44902       -0.19785
C         -2.09628       -2.42536        0.10982
C         -0.99680       -3.21129        0.37843
H         -0.06269       -2.76108        0.66985
C         -1.08072       -4.57758        0.20719
H         -0.20742       -5.20378        0.30448
C         -2.25897       -5.15332       -0.23863
C         -3.39105       -4.36529       -0.37805
H         -4.29944       -4.81516       -0.74493
C         -3.31214       -2.99947       -0.19481
H         -4.16705       -2.37231       -0.39536
C         -3.38709        0.14611        0.61748
C         -4.07247       -0.42542        1.66513
H         -3.73135       -1.35992        2.08097
C         -5.17700        0.20892        2.19701
H         -5.71528       -0.21340        3.03093
C         -5.60699        1.41235        1.67452
C         -4.91567        1.97808        0.62072
H         -5.25590        2.92199        0.22474
C         -3.80893        1.34667        0.09418
H         -3.27916        1.78760       -0.73336
C         -1.72532       -0.13280       -1.83387
C         -1.19780        1.14280       -1.92214
H         -0.89365        1.64625       -1.01980
C         -0.90077        1.72304       -3.15421
C         -1.34499        1.07157       -4.29814
H         -1.16207        1.51596       -5.26215
C         -1.86175       -0.20604       -4.21953
H         -2.07589       -0.74419       -5.12743
C         -1.94982       -0.87842       -3.00022
C          1.47797       -0.07652       -1.92237
C          0.94544       -1.35143       -1.97189
H          0.68519       -1.84454       -1.05064
C          0.58650       -1.94356       -3.18128
C          0.97140       -1.30348       -4.35273
H          0.73927       -1.75698       -5.30177
C          1.49210       -0.02556       -4.31261
H          1.65974        0.50394       -5.23525
C          1.64297        0.65806       -3.10566
C         -1.92764       -2.39186       -3.04783
H         -2.57238       -2.73291       -3.86581
H         -2.40381       -2.79111       -2.15615
C         -0.48478       -2.99930       -3.21100
H         -0.27818       -3.74141       -2.43250
H         -0.40976       -3.56312       -4.14771
C          0.16814        2.77742       -3.25310
H          0.00721        3.52814       -2.47220
H          0.04135        3.33232       -4.18962
C          1.61769        2.17091       -3.16591
H          2.21599        2.50600       -4.02095
H          2.14360        2.57974       -2.30698
C          2.04253        2.21952       -0.05519
C          1.00104        3.07482        0.23156
C          3.27346        2.71271       -0.43364
C          1.15224        4.42767        0.00717
C          3.41870        4.06505       -0.67105
C          2.33794        4.91988       -0.51381
C          3.21652       -0.38853        0.47260
C          3.64205       -1.56234       -0.10678
C          3.91308        0.14531        1.53197
C          4.76363       -2.20528        0.37571
H          3.10934       -1.96796       -0.95012
C          5.03264       -0.49750        2.01662
H          3.57914        1.06511        1.98436
C          5.46199       -1.67969        1.44412
H          5.12288       -3.11638       -0.07607
H          5.59090       -0.08632        2.84276
Pd        -0.05889       -0.03756        1.20797
Cl        -1.48106       -0.71135        2.81957
Cl         1.36056        0.83676        2.72119
H          4.33297        4.44938       -1.09396
H          4.08266        2.03151       -0.64743
H          0.31924        5.10475        0.11805
H          0.05628        2.68738        0.57463
C         -3.54777       -7.24411       -0.86939
C         -2.17736       -6.50732       -0.89721
C         -1.66355       -6.24023       -2.34773
F         -4.42225       -6.59904       -1.65371
F         -3.37696       -8.50544       -1.29494
F         -3.98705       -7.23892        0.39782
F         -1.28073       -7.27355       -0.27135
F         -1.68114       -7.37703       -3.05636
F         -2.43475       -5.30461       -2.91952
F         -0.41472       -5.76703       -2.24709
C         -6.27327        3.33474        3.11096
C         -6.78875        2.11969        2.28747
C         -7.79427        2.54039        1.17521
F         -5.48698        2.85453        4.08627
F         -5.55995        4.14029        2.31051
F         -7.31661        3.99310        3.63801
F         -7.43072        1.30109        3.12548
F         -7.23566        3.47785        0.39704
F         -8.06882        1.44910        0.44493
F         -8.91465        3.00864        1.74628
C          7.94347       -1.60942        1.30966
C          6.72268       -2.36023        1.91386
C          6.76649       -2.41167        3.46961
F          9.07862       -2.17998        1.74033
F          7.85221       -1.70617       -0.02535
F          7.89223       -0.31967        1.67412
F          6.75648       -3.61880        1.46714
F          7.79646       -3.18001        3.85674
F          6.89749       -1.16993        3.95693
F          5.60915       -2.94476        3.88918
C          3.69954        6.90651       -1.31128
C          2.29288        6.24634       -1.23038
C          1.68541        5.94415       -2.63740
F          4.20674        6.93804       -0.07001
F          4.49457        6.17725       -2.10638
F          3.57241        8.15356       -1.79103
F          1.47455        7.08856       -0.59503
F          0.42309        5.53829       -2.44792
F          1.71655        7.04800       -3.39595
F          2.37808        4.94852       -3.20830
