171
-217.84654247
P         -1.63796        0.42098       -0.32690
P          1.67359       -0.29666       -0.27038
C         -0.88035        1.48189       -1.56427
C          1.00251       -1.16872       -1.68611
C         -0.00893        0.96640       -2.51821
C          0.64175        1.85997       -3.38995
C          0.36935        3.21512       -3.30271
C         -0.51765        3.70299       -2.36733
C         -1.13394        2.83044       -1.49278
C          1.24986       -2.51506       -1.79499
C          0.72399       -3.23290       -2.85134
C         -0.06222       -2.59355       -3.78643
C         -0.32545       -1.23693       -3.69219
C          0.22828       -0.50005       -2.62735
Cl         1.58897        0.48685        2.84296
Cl        -1.52074       -0.10231        2.95340
C         -1.17213       -0.58309       -4.72758
C          1.60440        1.37397       -4.41511
H         -0.72491        4.75929       -2.31330
H         -1.81911        3.20509       -0.75005
H          1.85773       -3.00546       -1.05135
H          0.92810       -4.28696       -2.94456
H          0.86324        3.89162       -3.97974
H         -0.48269       -3.15064       -4.60667
C         -3.56856       -3.37194       -1.84905
C         -2.64869       -3.45866       -0.81084
C         -2.04137       -2.28530       -0.38378
C         -2.34332       -1.08748       -0.98201
C         -3.25356       -1.01697       -2.00786
C         -3.89165       -2.16620       -2.46006
H         -4.06858       -4.26181       -2.18189
H         -1.34512       -2.29980        0.43743
H         -3.47538       -0.05356       -2.43486
C         -4.81233        2.60477        2.06878
C         -3.48924        3.01286        2.18962
C         -2.53016        2.34647        1.43699
C         -2.88969        1.31484        0.60577
C         -4.20130        0.92400        0.50230
C         -5.19379        1.56336        1.23124
H         -5.55764        3.10705        2.65626
H         -1.48892        2.60828        1.51467
H         -4.45412        0.10110       -0.14299
C          4.17229       -3.05283        2.33690
C          2.79147       -3.20513        2.32748
C          2.05325       -2.37590        1.49246
C          2.67208       -1.40731        0.74050
C          4.03529       -1.25403        0.78618
C          4.81644       -2.07694        1.58615
H          4.75688       -3.71470        2.94678
H          0.98283       -2.46826        1.43766
H          4.49546       -0.48094        0.19726
C          4.05370        3.39110       -1.36548
C          2.95897        3.51930       -0.51967
C          2.24695        2.37037       -0.20030
C          2.60554        1.15912       -0.73655
C          3.67580        1.05253       -1.59108
C          4.43991        2.16983       -1.90623
H          4.62407        4.27120       -1.59501
H          1.40676        2.40964        0.47107
H          3.92038        0.08912       -2.00660
Pd        -0.00925        0.10261        1.30033
C         -0.82104       -5.07822       -0.24370
C         -2.32315       -4.77724       -0.09585
C         -3.11459       -5.96050       -0.68525
C         -2.68828       -4.64217        1.39458
H         -0.54736       -5.98231        0.29982
H         -0.56272       -5.22503       -1.29158
H         -0.21269       -4.25929        0.13580
H         -2.86720       -6.88666       -0.16655
H         -4.18842       -5.80348       -0.58525
H         -2.88170       -6.10123       -1.74062
H         -2.45106       -5.55536        1.94005
H         -2.14845       -3.82121        1.86386
H         -3.75370       -4.44533        1.51204
C         -4.62756       -3.10603       -4.67392
C         -4.98327       -2.12698       -3.53915
C         -5.14063       -0.71659       -4.14085
C         -6.32525       -2.53657       -2.90441
H         -4.57870       -4.13269       -4.31352
H         -5.37389       -3.06946       -5.46733
H         -3.66049       -2.85966       -5.11026
H         -5.44258        0.00378       -3.38106
H         -4.20972       -0.37319       -4.59002
H         -5.90417       -0.71139       -4.91861
H         -6.27872       -3.54781       -2.50170
H         -6.58601       -1.86398       -2.08740
H         -7.13043       -2.50510       -3.63822
C         -1.61575        4.46898        3.10702
C         -3.11875        4.13424        3.17016
C         -3.45776        3.68068        4.60145
C         -3.91368        5.40610        2.82159
H         -1.33188        4.79089        2.10567
H         -1.36879        5.27613        3.79644
H         -1.00850        3.60621        3.38045
H         -3.18836        4.44652        5.32850
H         -4.52234        3.47614        4.70926
H         -2.91531        2.76931        4.85259
H         -3.70614        5.72067        1.79892
H         -4.98678        5.24179        2.91040
H         -3.64737        6.22667        3.48761
C         -7.60151        1.90184        1.98606
C         -6.64644        1.08634        1.09398
C         -6.73354       -0.39493        1.50812
C         -7.09336        1.23950       -0.37186
H         -8.62761        1.55124        1.87553
H         -7.33234        1.80698        3.03787
H         -7.58324        2.95793        1.71754
H         -7.75881       -0.75878        1.44352
H         -6.11666       -1.02333        0.86657
H         -6.39114       -0.52788        2.53414
H         -6.47415        0.64050       -1.03837
H         -8.12721        0.91957       -0.50056
H         -7.01861        2.27895       -0.69065
C          2.31159       -5.64975        2.53801
C          2.11909       -4.27551        3.19978
C          0.61090       -3.99854        3.36041
C          2.74626       -4.28343        4.60841
H          3.37008       -5.89011        2.44104
H          1.83837       -6.43670        3.12500
H          1.87408       -5.66170        1.53992
H          0.43786       -2.99553        3.75051
H          0.09091       -4.09198        2.40968
H          0.15582       -4.70947        4.04978
H          2.22352       -4.98144        5.26217
H          3.79259       -4.58382        4.58241
H          2.68898       -3.29291        5.05936
C          6.90680       -2.25946        0.22319
C          6.34015       -1.88840        1.60454
C          7.01322       -2.77715        2.66844
C          6.67119       -0.41773        1.92561
H          7.98759       -2.12236        0.19318
H          6.69038       -3.30073       -0.01494
H          6.46753       -1.64203       -0.55849
H          6.61992       -2.56305        3.66210
H          6.85822       -3.83441        2.45459
H          8.08888       -2.60287        2.69310
H          7.74872       -0.26296        1.97785
H          6.27735        0.25620        1.16628
H          6.24126       -0.12806        2.88418
C          2.39493        5.90095       -1.08455
C          2.59239        4.89148        0.06183
C          3.72919        5.36703        0.98364
C          1.28876        4.82810        0.88154
H          1.62182        5.55731       -1.77064
H          2.09469        6.87498       -0.69866
H          3.31153        6.03935       -1.65636
H          3.88980        4.65560        1.79352
H          4.66551        5.46650        0.43554
H          3.49472        6.33534        1.42541
H          1.02305        5.81392        1.26282
H          0.45991        4.47482        0.26897
H          1.39446        4.16233        1.73784
C          6.47824        3.33546       -2.89474
C          5.68374        2.01856       -2.79656
C          5.25739        1.59808       -4.21334
C          6.60880        0.94139       -2.19937
H          5.88153        4.12192       -3.35635
H          6.79688        3.67459       -1.90915
H          7.37233        3.20279       -3.50387
H          6.12716        1.44401       -4.85182
H          4.68822        0.66930       -4.19436
H          4.63874        2.36769       -4.67323
H          6.12259       -0.03272       -2.18941
H          7.52531        0.84683       -2.78151
H          6.88404        1.19355       -1.17558
H         -0.59710       -0.38437       -5.63285
H          2.41653        2.08852       -4.54962
H         -1.57995        0.36347       -4.37029
H         -2.01180       -1.22171       -5.00191
H          1.11445        1.24200       -5.38048
H          2.04613        0.41977       -4.12457
