171
-217.84513002
P         -1.60617        0.37497       -0.39164
P          1.67604       -0.31077       -0.31476
C         -0.86636        1.43836       -1.63447
C          1.04385       -1.19948       -1.73711
C          0.00745        0.91853       -2.58277
C          0.65268        1.80668       -3.46404
C          0.36863        3.16059       -3.39295
C         -0.52448        3.65180       -2.46473
C         -1.13389        2.78484       -1.57974
C          1.32263       -2.53940       -1.84828
C          0.80773       -3.26876       -2.90210
C         -0.00458       -2.64932       -3.82836
C         -0.29695       -1.29885       -3.73344
C          0.25450       -0.54753       -2.67754
Cl         1.50358        0.42353        2.87430
Cl        -1.62521       -0.43502        2.76659
C         -1.18070       -0.67003       -4.75343
C          1.61820        1.31129       -4.48239
H         -0.74173        4.70668       -2.42430
H         -1.82396        3.16144       -0.84248
H          1.94573       -3.01610       -1.10850
H          1.03513       -4.31807       -2.99584
H          0.85717        3.83355       -4.07731
H         -0.42301       -3.21730       -4.64216
C         -3.66287       -3.34452       -1.92404
C         -2.70997       -3.47333       -0.92041
C         -2.05530       -2.32362       -0.49890
C         -2.36136       -1.10574       -1.05278
C         -3.30947       -0.99282       -2.03942
C         -3.98318       -2.11934       -2.49655
H         -4.18787       -4.21754       -2.26269
H         -1.31065       -2.37136        0.27681
H         -3.52944       -0.01491       -2.43324
C         -4.65216        2.56750        2.16201
C         -3.32194        2.96957        2.21477
C         -2.40924        2.30890        1.40333
C         -2.81240        1.27790        0.59222
C         -4.12670        0.88480        0.56411
C         -5.07744        1.52530        1.34598
H         -5.37216        3.07237        2.77656
H         -1.36907        2.58772        1.41813
H         -4.41384        0.05984       -0.06402
C          4.14677       -2.88832        2.49083
C          2.80447       -3.19560        2.30053
C          2.08272       -2.42537        1.39848
C          2.67742       -1.38055        0.73484
C          4.00233       -1.08733        0.94112
C          4.76652       -1.83674        1.82551
H          4.71979       -3.47394        3.18336
H          1.03647       -2.62288        1.23598
H          4.44012       -0.25245        0.42294
C          3.99907        3.43115       -1.33464
C          2.88314        3.53363       -0.51330
C          2.18320        2.37028       -0.22032
C          2.57777        1.16978       -0.75535
C          3.67243        1.08670       -1.58024
C          4.42001        2.22068       -1.87373
H          4.55872        4.32285       -1.54502
H          1.32637        2.38898        0.43062
H          3.95161        0.12774       -1.98435
Pd        -0.01157        0.01243        1.26769
C         -3.38702       -5.91246       -0.65191
C         -2.35504       -4.82694       -0.28874
C         -2.32170       -4.69372        1.24716
C         -0.97445       -5.26469       -0.80255
H         -3.15493       -6.85028       -0.14726
H         -4.39082       -5.61225       -0.35155
H         -3.39118       -6.11201       -1.72314
H         -2.11528       -5.65501        1.71738
H         -1.55122       -3.99755        1.57358
H         -3.27888       -4.33278        1.62273
H         -0.66701       -6.20770       -0.35096
H         -0.99243       -5.39723       -1.88401
H         -0.21990       -4.51410       -0.57221
C         -4.80867       -3.00482       -4.70221
C         -5.10369       -2.03434       -3.54274
C         -5.23622       -0.61129       -4.12012
C         -6.43754       -2.41669       -2.87528
H         -4.77719       -4.03809       -4.35931
H         -5.57715       -2.93572       -5.47197
H         -3.84896       -2.77706       -5.16428
H         -6.01723       -0.57345       -4.87939
H         -5.50037        0.10570       -3.34316
H         -4.30610       -0.28777       -4.58614
H         -6.40669       -3.43472       -2.48836
H         -6.65627       -1.74976       -2.04154
H         -7.26225       -2.35268       -3.58487
C         -3.93734        4.58730        4.08251
C         -2.83141        4.10466        3.12440
C         -2.38466        5.28839        2.24926
C         -1.64348        3.60495        3.97109
H         -4.30097        3.76844        4.70306
H         -3.56065        5.36494        4.74688
H         -4.77989        5.00669        3.53318
H         -1.59263        4.99061        1.56422
H         -3.21648        5.66213        1.65250
H         -2.01032        6.10894        2.86107
H         -1.92864        2.72914        4.55349
H         -0.79498        3.32724        3.34757
H         -1.30543        4.37619        4.66280
C         -7.44134        1.85831        2.23253
C         -6.53551        1.04864        1.28547
C         -6.59968       -0.43492        1.69596
C         -7.06095        1.20957       -0.15325
H         -7.44121        2.91541        1.96737
H         -8.47108        1.50519        2.17811
H         -7.11355        1.76036        3.26729
H         -7.62705       -0.79845        1.68713
H         -6.02006       -1.06010        1.01761
H         -6.20012       -0.57321        2.70036
H         -7.00678        2.25132       -0.46869
H         -6.47622        0.61738       -0.85605
H         -8.09918        0.88677       -0.22845
C          0.92997       -3.67627        3.88920
C          2.08485       -4.30288        3.08356
C          3.03187       -5.01983        4.06460
C          1.52538       -5.34228        2.09701
H          0.40301       -4.43229        4.47076
H          1.30773       -2.92078        4.57766
H          0.20474       -3.19336        3.23574
H          2.50228       -5.79898        4.61275
H          3.85939       -5.49311        3.53642
H          3.44026       -4.32241        4.79575
H          2.32627       -5.78098        1.50217
H          1.01382       -6.14743        2.62413
H          0.81264       -4.88629        1.41331
C          7.01639       -1.73519        0.73419
C          6.24342       -1.47440        2.03859
C          6.88065       -2.31074        3.16503
C          6.35546        0.01493        2.41981
H          8.06984       -1.47874        0.84500
H          6.95107       -2.78551        0.45077
H          6.61101       -1.14372       -0.08503
H          6.35037       -2.16715        4.10633
H          6.87214       -3.37269        2.92053
H          7.91912       -2.01944        3.32235
H          5.99081        0.66066        1.62203
H          5.77097        0.22702        3.31480
H          7.39110        0.28954        2.61924
C          1.16254        4.80110        0.86329
C          2.48212        4.89395        0.07302
C          2.29278        5.91115       -1.06788
C          3.59068        5.37862        1.02397
H          0.35491        4.43996        0.22767
H          1.25992        4.12868        1.71531
H          0.87210        5.77863        1.24786
H          3.21943        6.07102       -1.61745
H          1.54145        5.56087       -1.77456
H          1.96686        6.87596       -0.67966
H          3.33108        6.33890        1.46922
H          3.74483        4.66219        1.83071
H          4.53710        5.49802        0.49760
C          6.63061        1.05865       -2.10617
C          5.68395        2.09635       -2.73839
C          6.43706        3.43665       -2.84438
C          5.29533        1.64097       -4.15549
H          6.17462        0.06986       -2.08654
H          7.56006        0.98286       -2.67023
H          6.87882        1.33714       -1.08210
H          6.73402        3.79784       -1.85987
H          7.34170        3.32532       -3.44210
H          5.82029        4.19775       -3.32191
H          4.76430        0.68999       -4.13271
H          4.65098        2.37832       -4.63274
H          6.17941        1.51516       -4.78033
H         -0.65135       -0.53281       -5.69727
H          2.38874        2.05649       -4.68159
H         -1.54289        0.30447       -4.42325
H         -2.05206       -1.29570       -4.94779
H          1.11462        1.09290       -5.42479
H          2.11600        0.40107       -4.14496
