171
-217.84745129
P         -1.58670        0.38774       -0.42589
P          1.59034       -0.36385       -0.25896
C         -0.82811        1.38275       -1.71560
C          0.98453       -1.28680       -1.67611
C          0.02803        0.81044       -2.64941
C          0.67912        1.64897       -3.57496
C          0.41578        3.00848       -3.55915
C         -0.46181        3.55198       -2.64536
C         -1.07387        2.73413       -1.71590
C          1.22467       -2.63857       -1.71515
C          0.72679       -3.40328       -2.75185
C         -0.03105       -2.80648       -3.73687
C         -0.28679       -1.44559       -3.71505
C          0.24832       -0.66081       -2.67532
Cl         1.38584        0.28038        2.97811
Cl        -1.74442       -0.39829        2.78990
C         -1.10994       -0.83914       -4.79745
C          1.63630        1.10284       -4.57611
H         -0.66419        4.61055       -2.65113
H         -1.74793        3.15222       -0.98580
H          1.80473       -3.09824       -0.93119
H          0.92653       -4.46170       -2.78787
H          0.90939        3.64400       -4.27499
H         -0.43479       -3.40058       -4.53936
C         -3.66284       -3.38950       -1.79648
C         -2.74755       -3.46475       -0.75356
C         -2.10042       -2.29642       -0.37631
C         -2.36829       -1.11153       -1.01523
C         -3.27686       -1.05162       -2.04292
C         -3.94698       -2.19830       -2.45403
H         -4.18573       -4.27675       -2.09984
H         -1.39130       -2.30711        0.43347
H         -3.46486       -0.09985       -2.50995
C         -4.55800        2.80834        2.00166
C         -3.20333        3.09729        2.11985
C         -2.31447        2.36628        1.34379
C         -2.76625        1.37560        0.50778
C         -4.10650        1.09694        0.41029
C         -5.03393        1.81635        1.15274
H         -5.26674        3.35836        2.59164
H         -1.25605        2.55409        1.41212
H         -4.42172        0.30107       -0.24029
C          4.32748       -2.93592        2.28915
C          2.96304       -3.20059        2.30003
C          2.14213       -2.42128        1.49455
C          2.66998       -1.40326        0.73931
C          4.01739       -1.14427        0.75721
C          4.87837       -1.91078        1.52927
H          4.97106       -3.54476        2.89569
H          1.07962       -2.58975        1.46581
H          4.40258       -0.32786        0.17222
C          3.84043        3.44165       -1.20372
C          2.80416        3.48728       -0.27856
C          2.10103        2.31478       -0.03894
C          2.43817        1.15332       -0.68799
C          3.46567        1.12310       -1.59808
C          4.19244        2.27544       -1.87330
H          4.40520        4.33301       -1.40109
H          1.28950        2.30153        0.66766
H          3.70125        0.18897       -2.07918
Pd        -0.09205       -0.02645        1.31384
C         -2.63064       -4.55316        1.50584
C         -2.43751       -4.77034       -0.00790
C         -0.98170       -5.17645       -0.29327
C         -3.36452       -5.91713       -0.45410
H         -2.43975       -5.47232        2.05940
H         -1.95612       -3.78955        1.89019
H         -3.65032       -4.23474        1.72113
H         -0.71023       -6.07795        0.25569
H         -0.84132       -5.37320       -1.35553
H         -0.29073       -4.38489       -0.00731
H         -3.23061       -6.14267       -1.51186
H         -3.14899       -6.82765        0.10494
H         -4.41063       -5.66321       -0.28368
C         -4.67281       -3.20066       -4.64345
C         -5.02066       -2.17139       -3.55134
C         -5.12975       -0.78061       -4.20662
C         -6.38317       -2.52337       -2.92635
H         -3.69259       -2.99606       -5.07174
H         -4.65728       -4.21422       -4.24502
H         -5.40484       -3.17392       -5.45046
H         -5.88053       -0.78338       -4.99671
H         -5.42339       -0.02498       -3.47829
H         -4.18228       -0.48012       -4.65240
H         -6.36893       -3.51893       -2.48406
H         -6.64169       -1.81319       -2.14136
H         -7.17417       -2.50124       -3.67575
C         -1.88247        5.22042        2.31183
C         -2.65501        4.14605        3.09745
C         -1.70696        3.45295        4.09532
C         -3.78296        4.83384        3.88958
H         -2.52755        5.69980        1.57578
H         -1.49687        5.99149        2.97859
H         -1.03661        4.78533        1.78320
H         -0.86082        2.99344        3.58588
H         -1.31287        4.16507        4.81993
H         -2.23040        2.66809        4.64072
H         -3.37564        5.57352        4.57875
H         -4.47282        5.34981        3.22203
H         -4.34608        4.11000        4.47839
C         -6.85043        0.40741        0.06032
C         -6.53941        1.52538        1.07583
C         -7.28397        2.80015        0.63845
C         -7.03965        1.07877        2.46153
H         -7.92257        0.21838        0.00867
H         -6.51537        0.68230       -0.93968
H         -6.36519       -0.52654        0.34346
H         -6.92266        3.14278       -0.33104
H         -8.35496        2.61662        0.55394
H         -7.14056        3.60888        1.35401
H         -6.88819        1.85839        3.20715
H         -8.10353        0.84364        2.43556
H         -6.50462        0.18956        2.79442
C          2.92135       -5.67432        2.69010
C          2.40328       -4.31625        3.19415
C          0.86214       -4.33760        3.17736
C          2.86122       -4.08713        4.64715
H          2.53404       -6.49077        3.29936
H          2.61141       -5.84538        1.65921
H          4.00952       -5.71740        2.72377
H          0.47716       -5.10588        3.84766
H          0.45354       -3.38013        3.50053
H          0.48555       -4.55636        2.17977
H          2.53615       -3.10888        5.00097
H          2.44237       -4.84277        5.31149
H          3.94569       -4.13273        4.73646
C          7.17386       -2.53752        2.43460
C          6.37783       -1.58182        1.52581
C          6.57904       -0.14110        2.03258
C          6.92141       -1.70441        0.08995
H          6.83594       -2.46800        3.46838
H          7.06902       -3.57084        2.10440
H          8.23568       -2.29198        2.41793
H          6.07627        0.57954        1.38845
H          6.17523       -0.02766        3.03840
H          7.63703        0.11886        2.06102
H          6.76472       -2.71127       -0.29651
H          6.42336       -1.00713       -0.58250
H          7.98988       -1.49201        0.05744
C          3.49373        5.86018        0.32732
C          2.40498        4.77680        0.45344
C          2.19114        4.48523        1.95301
C          1.10022        5.30922       -0.15966
H          3.62081        6.17529       -0.70797
H          3.22752        6.74478        0.90582
H          4.45137        5.49506        0.69817
H          1.36230        3.79821        2.11578
H          3.08522        4.04129        2.39006
H          1.96728        5.40117        2.49956
H          0.76550        6.21232        0.35033
H          1.24067        5.54747       -1.21369
H          0.30820        4.56513       -0.08891
C          5.23643        3.37985       -3.87904
C          5.40073        2.27251       -2.82064
C          5.55066        0.92209       -3.54873
C          6.67692        2.52754       -1.99800
H          6.06659        3.36887       -4.58516
H          4.31410        3.24388       -4.44236
H          5.20589        4.36786       -3.42182
H          6.39468        0.94626       -4.23792
H          5.72862        0.11148       -2.84268
H          4.65826        0.68568       -4.12699
H          6.80420        1.75818       -1.23650
H          7.56080        2.52171       -2.63555
H          6.63358        3.49224       -1.49346
H         -1.95492       -1.48052       -5.04819
H          2.50709        1.75160       -4.67341
H         -0.51947       -0.69782       -5.70361
H         -1.51012        0.13067       -4.49868
H          1.16957        1.02278       -5.55872
H          1.99340        0.11304       -4.28853
