64
-97.21930446
Cl        -1.30778       -0.34712       -2.84805
Cl         1.83921       -0.80021       -2.94138
P          1.96278       -0.70026        0.31063
C          2.06969       -2.45441        0.90404
C          3.77880       -0.36816        0.08595
P         -1.26255       -0.28856        0.39276
C          1.22669        0.43781        1.53902
C         -0.21202        0.61377        1.59621
C         -0.50389        1.61383        2.61304
C          0.76660        2.09027        3.13384
C          1.83748        1.34030        2.49987
H         -1.49481        1.93485        2.93997
H          0.89233        2.83889        3.91984
Pd         0.29527       -0.70716       -1.32007
H          2.90743        1.45211        2.68409
C         -5.12664        1.80755       -0.82804
C         -4.83872        0.53531       -1.28006
C         -3.66124       -0.08188       -0.89661
C         -2.77539        0.57352       -0.07197
C         -3.06768        1.83756        0.38725
C         -4.24225        2.45970        0.00763
H         -6.04225        2.29134       -1.12703
H         -5.52702        0.02388       -1.93272
H         -3.42257       -1.07439       -1.24531
H         -2.37414        2.33843        1.03836
H         -4.46581        3.45214        0.36337
C         -2.47264       -4.35366        2.01616
C         -2.10267       -4.22851        0.69116
C         -1.73876       -2.99126        0.19158
C         -1.74317       -1.89388        1.02143
C         -2.11952       -2.00927        2.33966
C         -2.48439       -3.24603        2.84155
H         -2.75621       -5.31760        2.40620
H         -2.09887       -5.09196        0.04637
H         -1.45933       -2.87444       -0.84324
H         -2.11875       -1.13334        2.96936
H         -2.77605       -3.34369        3.87436
C          4.13407        0.51559       -1.08981
H          4.10626        0.09817        1.02455
C          4.36375       -1.78672       -0.01929
H          5.43151       -1.78218        0.24828
C          3.57284       -2.78945        0.85904
H          4.32366       -2.10584       -1.07014
C          1.46848       -2.58511        2.28669
H          1.51395       -3.05608        0.17253
H          3.97053       -2.76636        1.88256
H          3.72586       -3.82152        0.51030
H          1.52698       -3.61245        2.65363
H          1.99595       -1.94577        2.99742
H          0.42087       -2.28248        2.29635
H          5.21649        0.59294       -1.21091
H          3.73157        0.10993       -2.01745
H          3.74554        1.52615       -0.96919
Fe         0.66691        2.36924        1.13367
C         -0.32364        3.87322        0.16025
C         -0.17617        2.72866       -0.71972
C          1.23719        2.43696       -0.84636
C          1.97276        3.39694       -0.04368
C          1.00470        4.27634        0.59078
H         -1.26140        4.36697        0.42504
H         -0.97626        2.20284       -1.24431
H          1.65649        1.66699       -1.49679
H          3.05855        3.46628        0.05428
H          1.23788        5.12240        1.24206
