100
-131.96610904
C         -3.12367       -2.84524       -1.46909
C         -1.95614       -3.41014       -0.78599
C         -2.80772       -1.52458       -1.88224
C         -1.41842       -1.19578       -1.44090
C         -0.59306       -0.30992       -2.32814
C         -0.90391       -2.43984       -0.76426
C          0.49966       -2.81200       -0.31350
C          1.09441       -3.89320       -1.19148
Cl        -0.55164        1.42578        2.64790
Cl         0.54393       -1.61492        2.72701
C          0.68793        1.27781       -4.26038
C          0.19350        0.03603       -4.60768
C          0.55189        1.72941       -2.95555
C         -0.44195       -0.73555       -3.66708
C         -0.05050        0.95188       -1.99573
H         -1.87516       -4.43164       -0.40972
H         -3.43464       -0.88860       -2.51138
H          1.21124       -3.53242       -2.21508
H          2.07047       -4.21968       -0.82604
H          0.44811       -4.77331       -1.23314
H          1.17376        1.89440       -4.99871
H          0.29560       -0.32072       -5.61979
H          0.91269        2.71201       -2.69456
H         -0.84785       -1.69320       -3.94509
H         -4.05257       -3.37802       -1.68834
P         -0.12432        1.69545       -0.35967
H          0.40638       -3.19347        0.71259
P          1.71671       -1.41894       -0.11687
H          1.64733       -0.88847       -2.42786
C          3.55180       -1.89313       -2.33238
C          2.48113       -0.96060       -1.73385
C          3.44976       -1.91006       -3.86170
H          3.57154       -2.77880        0.50072
C          4.01375       -0.93215        1.54737
C          3.03234       -1.99719        1.03826
H          4.27380       -0.28180        0.69379
C          3.41165       -0.05242        2.64573
H          1.05028        3.76116       -0.75905
H         -1.95491        2.63589        0.88332
C         -4.20803        2.50934       -0.80236
C         -2.84351        1.80167       -0.90642
C         -1.74149        2.59065       -0.19164
C         -1.65782        4.01873       -0.75470
C         -3.01765        4.74207       -0.66803
C         -4.12295        3.93566       -1.37468
H         -4.51070        2.55955        0.25088
H         -4.99065        1.92733       -1.30901
H         -2.56818        1.69468       -1.96330
H         -2.88792        0.77997       -0.51373
H         -0.88437        4.59655       -0.23256
H         -1.33125        3.96504       -1.80049
H         -3.28696        4.87890        0.38673
H         -2.94635        5.75591       -1.08640
H         -3.90425        3.88347       -2.44873
H         -5.09265        4.44746       -1.29631
C          3.76308        3.34994       -0.15077
C          2.62587        2.34124       -0.41314
C          1.24877        2.92797       -0.07466
C          1.22494        3.45662        1.36661
C          2.33752        4.49363        1.60615
C          3.71671        3.88601        1.29192
H          3.67325        4.18814       -0.85297
H          4.74016        2.89331       -0.36327
H          2.78181        1.43827        0.18591
H          2.64671        2.01631       -1.46039
H          0.23565        3.86206        1.61788
H          1.37186        2.61295        2.05023
H          2.16687        5.36408        0.96063
H          2.30094        4.87704        2.63548
H          3.91978        3.06519        1.99099
H          4.51591        4.62123        1.46250
H          3.35837       -2.91509       -1.96734
C          4.96554       -1.49779       -1.90150
H          2.55275       -2.49225        1.88250
C          5.29976       -1.59083        2.06006
H          2.88996        0.04215       -1.64263
H          3.61927       -0.91202       -4.26723
H          2.46322       -2.23598       -4.19542
H          4.19023       -2.57705       -4.30585
H          5.18959       -0.47510       -2.20682
H          5.09465       -1.55522       -0.82293
H          5.71574       -2.14662       -2.35646
H          2.55916        0.52337        2.29307
H          3.07005       -0.66195        3.48262
H          4.14503        0.65582        3.03427
H          6.02794       -0.84648        2.38613
H          5.08398       -2.23480        2.91319
H          5.77332       -2.20929        1.29638
Fe        -2.67189       -1.71653        0.15530
C         -2.53118       -1.86321        2.20312
C         -3.49085       -2.82106        1.69268
C         -4.52370       -2.08167        0.99243
C         -4.19628       -0.67131        1.07327
C         -2.98338       -0.53051        1.85380
H         -1.60729       -2.10232        2.73030
H         -3.44455       -3.90584        1.81456
H         -5.40453       -2.50985        0.50816
H         -4.81302        0.14418        0.68982
H         -2.46295        0.39692        2.09256
Pd         0.34301       -0.01162        1.15064
