171
-217.84742793
P         -1.60719        0.41218       -0.33563
P          1.60148       -0.33596       -0.25897
C         -0.83765        1.45640       -1.58277
C          0.95829       -1.21914       -1.68214
C          0.01041        0.92537       -2.54915
C          0.67564        1.80634       -3.42389
C          0.43973        3.16734       -3.32477
C         -0.42535        3.67195       -2.37756
C         -1.05501        2.81060       -1.50118
C          1.18665       -2.56955       -1.77719
C          0.67662       -3.28482       -2.84304
C         -0.07235       -2.63845       -3.80387
C         -0.31415       -1.27673       -3.72522
C          0.22295       -0.54433       -2.64913
Cl         1.51811        0.34945        2.93501
Cl        -1.67085       -0.28134        2.87095
C         -1.11057       -0.60707       -4.78997
C          1.63786        1.30968       -4.44598
H         -0.60290        4.73307       -2.31389
H         -1.71904        3.19856       -0.74601
H          1.76936       -3.06463       -1.01709
H          0.86330       -4.34325       -2.92289
H          0.94961        3.83529       -3.99849
H         -0.47809       -3.19377       -4.63262
C         -3.56226       -3.38728       -1.81623
C         -2.67655       -3.46009       -0.74808
C         -2.05700       -2.28547       -0.34270
C         -2.33369       -1.09691       -0.97156
C         -3.22135       -1.03923       -2.01787
C         -3.85818       -2.19255       -2.46119
H         -4.05008       -4.28223       -2.15324
H         -1.36038       -2.28996        0.47729
H         -3.41978       -0.08439       -2.47426
C         -4.75626        2.68221        2.01187
C         -3.42147        3.02459        2.18747
C         -2.47058        2.33452        1.44592
C         -2.85054        1.34034        0.57822
C         -4.17471        1.01253        0.42252
C         -5.15954        1.68336        1.13542
H         -5.50313        3.19858        2.58650
H         -1.42189        2.54917        1.55924
H         -4.43363        0.21534       -0.25055
C          4.25410       -2.95509        2.33763
C          2.89097       -3.22586        2.28950
C          2.09981       -2.44336        1.45826
C          2.65017       -1.41663        0.73167
C          3.99579       -1.15668        0.80245
C          4.82937       -1.92606        1.60138
H          4.88057       -3.55202        2.97183
H          1.03897       -2.61843        1.39887
H          4.40104       -0.33204        0.24336
C          3.99577        3.33538       -1.35901
C          2.93746        3.47152       -0.46938
C          2.20892        2.33326       -0.14885
C          2.51847        1.12768       -0.72646
C          3.55130        1.01350       -1.62423
C          4.32098        2.12284       -1.95417
H          4.59870        4.19709       -1.57805
H          1.39979        2.37441        0.55935
H          3.75752        0.04705       -2.05228
Pd        -0.04463        0.02928        1.35438
C         -2.26407       -4.57501        1.47775
C         -2.34634       -4.78637       -0.04808
C         -0.99616       -5.29736       -0.57404
C         -3.42580       -5.85254       -0.32144
H         -2.09277       -5.52005        1.99288
H         -1.45027       -3.90502        1.74892
H         -3.19156       -4.14729        1.85767
H         -0.70779       -6.22598       -0.08188
H         -1.04763       -5.48435       -1.64637
H         -0.21192       -4.56168       -0.40222
H         -3.45270       -6.13028       -1.37461
H         -3.22516       -6.76034        0.24751
H         -4.41254       -5.48949       -0.03428
C         -6.26611       -2.60569       -3.01042
C         -4.90396       -2.17477       -3.58537
C         -4.48254       -3.15219       -4.69874
C         -5.05837       -0.76894       -4.19772
H         -6.22154       -3.61480       -2.60230
H         -6.57552       -1.93517       -2.20924
H         -7.03741       -2.59026       -3.78025
H         -5.19312       -3.13101       -5.52485
H         -3.50093       -2.89255       -5.09231
H         -4.43303       -4.17624       -4.33093
H         -5.39460       -0.05008       -3.45086
H         -4.11699       -0.41573       -4.61637
H         -5.79472       -0.77609       -5.00125
C         -1.51651        4.35488        3.22227
C         -3.03569        4.09884        3.21360
C         -3.45844        3.62708        4.61661
C         -3.74882        5.41902        2.86802
H         -1.17627        4.69367        2.24463
H         -1.25683        5.12527        3.94813
H         -0.96651        3.45255        3.48912
H         -2.97572        2.68174        4.86403
H         -3.18020        4.35826        5.37532
H         -4.53589        3.47732        4.67528
H         -3.47143        6.20662        3.56844
H         -3.48025        5.74965        1.86480
H         -4.83174        5.30775        2.90535
C         -7.42744        2.58415        0.55242
C         -6.64793        1.33340        0.99827
C         -7.17959        0.84494        2.35790
C         -6.87555        0.22055       -0.04432
H         -8.48629        2.35914        0.42575
H         -7.34313        3.38628        1.28462
H         -7.04542        2.95669       -0.39791
H         -7.08630        1.61784        3.11991
H         -8.23158        0.56850        2.28947
H         -6.62180       -0.02776        2.69710
H         -6.36349       -0.69764        0.24311
H         -7.93648       -0.01038       -0.13910
H         -6.51508        0.52517       -1.02665
C          3.25202       -5.03327        4.04879
C          2.23003       -4.31395        3.14780
C          1.57076       -5.35590        2.22823
C          1.16047       -3.66327        4.04674
H          2.76274       -5.79452        4.65633
H          4.01889       -5.52962        3.45442
H          3.73807       -4.33238        4.72722
H          1.09914       -6.14862        2.80872
H          0.80469       -4.89690        1.60719
H          2.30876       -5.81133        1.56818
H          0.38221       -3.18236        3.45575
H          0.68245       -4.40525        4.68586
H          1.60751       -2.90236        4.68600
C          6.92448       -1.72877        0.23972
C          6.32739       -1.59392        1.65293
C          7.09042       -2.53954        2.59989
C          6.50752       -0.14840        2.15431
H          6.79109       -2.74169       -0.13960
H          6.44435       -1.04501       -0.45907
H          7.99144       -1.50662        0.24346
H          6.71203       -2.46308        3.61906
H          7.00249       -3.57587        2.27419
H          8.15122       -2.29015        2.62279
H          6.03240        0.56667        1.48361
H          6.06245       -0.02598        3.14149
H          7.56347        0.11201        2.22419
C          2.46371        5.89143       -0.95060
C          2.63289        4.83724        0.15988
C          3.79765        5.23565        1.08292
C          1.33541        4.79819        0.98999
H          1.67288        5.59951       -1.64061
H          2.20261        6.86221       -0.52965
H          3.38011        6.01605       -1.52582
H          3.93649        4.49300        1.86846
H          4.73152        5.31248        0.52695
H          3.60877        6.19862        1.55702
H          1.10688        5.78281        1.39763
H          0.49044        4.48796        0.37584
H          1.42573        4.10857        1.82897
C          5.48937        3.11649       -3.95446
C          5.54767        2.02127       -2.87188
C          5.61802        0.65088       -3.57430
C          6.81711        2.20474       -2.02091
H          6.33557        3.03325       -4.63631
H          4.57623        3.03381       -4.54241
H          5.51719        4.11354       -3.51732
H          6.46861        0.60828       -4.25445
H          5.73688       -0.15702       -2.85291
H          4.71704        0.46269       -4.15754
H          6.87340        1.44332       -1.24325
H          7.71430        2.12833       -2.63488
H          6.82484        3.17942       -1.53386
H         -1.90184       -1.26084       -5.15670
H          2.55982        1.89090       -4.42008
H         -0.47983       -0.34206       -5.63941
H         -1.57990        0.30539       -4.41951
H          1.21880        1.39231       -5.44975
H          1.90375        0.26597       -4.27385
