72
-98.09694654
Fe         0.00193        2.80957        0.05683
P          1.85544       -0.05823        0.01000
P         -1.85941       -0.06183        0.03247
C          1.39218        1.55069        0.76388
C          0.34713        1.76699        1.74966
C          0.29788        3.18357        2.06666
C          1.31443        3.85571        1.27965
C          1.96958        2.85097        0.45856
C         -1.42724        1.58106       -0.66274
C         -1.97643        2.86663       -0.25939
C         -1.32226        3.91076       -1.03167
C         -0.35795        3.27659       -1.91169
C         -0.41405        1.84564       -1.66874
C          3.17861       -0.86205        1.05098
C          4.46565       -0.70593        0.21278
C          2.86954        0.26006       -1.51810
C          4.29326        0.32439       -0.93247
C         -3.20715       -0.78189       -1.02474
C         -4.40750        0.06794       -0.57352
C         -2.92056        0.19309        1.53927
C         -4.33121        0.42074        0.94222
H         -0.30254        0.99670        2.16417
H         -0.37783        3.65678        2.78270
H          1.53750        4.92477        1.29147
H          2.78512        3.03428       -0.24432
H         -2.76051        3.01723        0.48589
H          0.18508        1.08966       -2.17256
Cl         1.60791       -3.03380       -0.38473
Cl        -1.55407       -3.11170        0.19920
Pd        -0.00517       -1.49221       -0.04277
H          2.90742       -1.91991        1.14952
C          3.29338       -0.24692        2.44392
H          2.56079        1.22666       -1.93406
C          2.74271       -0.83931       -2.57338
H          4.75599       -1.67792       -0.21170
H          5.29946       -0.41463        0.86702
H          4.49694        1.33563       -0.55033
H          5.03476        0.15137       -1.72689
H         -1.53014        4.98168       -0.97042
H          0.29559        3.78328       -2.62556
H          4.24947       -0.54852        2.89402
H          3.58106       -0.75447       -3.27870
H         -3.34967       -1.82268       -0.71145
C         -2.91505       -0.71944       -2.52561
H         -2.55645        1.09066        2.05279
C         -2.88574       -1.00602        2.48532
H         -5.35338       -0.44142       -0.81550
H         -4.41365        0.99254       -1.16953
H         -4.65852        1.45751        1.11013
H         -5.05130       -0.19684        1.49713
H         -3.86512       -0.65158       -3.07377
H         -3.12981       -1.90898        1.91046
C          2.15292       -0.64249        3.36600
H          1.19240       -0.35065        2.94635
H          2.12016       -1.72363        3.51413
H          2.23741       -0.17614        4.35016
C          1.43452       -0.82391       -3.34324
H          1.30736        0.11059       -3.89303
H          1.37658       -1.63929       -4.06800
H          0.58433       -0.92806       -2.67181
C         -2.12347       -1.91732       -3.02910
H         -2.69527       -2.84071       -2.91878
H         -1.85438       -1.82082       -4.08332
H         -1.20336       -2.05427       -2.46279
C         -1.56656       -1.19140        3.21556
H         -1.59325       -2.04605        3.89543
H         -0.74929       -1.36529        2.51693
H         -1.31374       -0.31077        3.80883
H          3.35339        0.84467        2.34476
H          2.88290       -1.80978       -2.08065
H         -2.38901        0.21788       -2.74740
H         -3.69788       -0.90358        3.21874
