72
-98.10393521
Fe        -0.01105        2.82727       -0.00234
P          1.83105       -0.00878       -0.05710
P         -1.82647       -0.02477        0.06005
C          1.39912        1.60060        0.70721
C          0.39872        1.79918        1.74031
C          0.32458        3.22074        2.02111
C          1.30669        3.89315        1.19036
C          2.00520        2.88890        0.40663
C         -1.42044        1.59580       -0.69637
C         -2.03395        2.87623       -0.37831
C         -1.36381        3.89732       -1.16486
C         -0.37169        3.24682       -2.00073
C         -0.41690        1.82316       -1.72062
C          3.18432       -0.76938        0.96414
C          4.38552        0.08979        0.53469
C          2.88281        0.32190       -1.55772
C          4.30542        0.48723       -0.96844
C         -3.15781       -0.80716       -0.97439
C         -4.37394        0.04057       -0.56420
C         -2.90188        0.28989        1.54770
C         -4.31627        0.44871        0.93743
H         -0.20415        1.01696        2.19788
H         -0.34155        3.69736        2.74340
H          1.51420        4.96551        1.18601
H          2.80428        3.07077       -0.31455
H         -2.83332        3.04172        0.34641
H          0.19803        1.05453       -2.18567
Cl         1.56118       -3.05878       -0.43293
Cl        -1.51537       -3.06803        0.47657
Pd         0.00823       -1.48197       -0.01227
H          3.31882       -1.79947        0.61394
C          2.90832       -0.75697        2.46914
H          2.52690        1.25735       -2.00562
C          2.81375       -0.81098       -2.58054
H          5.33048       -0.42968        0.75815
H          4.39677        0.99634        1.15764
H          4.66549        1.51669       -1.11225
H          4.99938       -0.13870       -1.54656
H         -1.58980        4.96576       -1.15247
H          0.28420        3.73820       -2.72278
H          3.86540       -0.72888        3.00850
H          3.64102       -0.69894       -3.29533
H         -3.28452       -1.83662       -0.61926
C         -2.86328       -0.80098       -2.47704
H         -2.55807        1.22503        2.00565
C         -2.84254       -0.84658        2.56660
H         -5.31012       -0.49124       -0.79540
H         -4.38831        0.94295       -1.19315
H         -4.68000        1.47855        1.06863
H         -5.01745       -0.17407        1.51029
H         -3.81317       -0.75352       -3.02766
H         -3.03741       -1.79171        2.04330
C          2.09754       -1.95555        2.93815
H          1.16321       -2.04555        2.38655
H          2.64386       -2.88700        2.77784
H          1.85139       -1.89694        4.00074
C          1.49990       -0.88621       -3.33826
H          1.31951        0.02387       -3.91351
H          1.47809       -1.72484       -4.03797
H          0.66162       -1.01288       -2.65553
C         -2.07222       -2.01635       -2.93776
H         -1.14481       -2.12649       -2.37789
H         -2.63944       -2.93619       -2.78314
H         -1.81491       -1.96301       -3.99799
C         -1.53282       -0.92849        3.33007
H         -1.51759       -1.76812        4.02876
H         -0.69321       -1.05856        2.64971
H         -1.35049       -0.01978        3.90686
H          2.40458        0.18213        2.73126
H          3.00863       -1.75856       -2.06161
H         -2.33777        0.12763       -2.73364
H         -3.67339       -0.73442        3.27718
