171
-217.84167961
P         -1.73559        0.62444        0.13884
P          1.56020       -0.15552       -0.08838
C         -0.85350        1.88276       -0.81117
C          0.88045       -0.67667       -1.67290
C         -0.05052        1.61482       -1.91386
C          0.65915        2.67616       -2.50677
C          0.52769        3.95424       -1.99059
C         -0.27185        4.20068       -0.89549
C         -0.95607        3.15665       -0.30357
C          1.12563       -1.94255       -2.14457
C          0.60073       -2.34556       -3.35653
C         -0.17467       -1.47197       -4.09050
C         -0.43820       -0.19109       -3.63224
C          0.12185        0.22488       -2.40914
Cl         1.75302        0.81753        3.02897
Cl        -1.39923        0.35095        3.34792
C         -1.28308        0.73052       -4.44055
C          1.56560        2.45722       -3.66743
H         -0.35632        5.19851       -0.49712
H         -1.56840        3.32877        0.56952
H          1.73724       -2.61475       -1.56771
H          0.79382       -3.33974       -3.72519
H          1.07267        4.76059       -2.45190
H         -0.57657       -1.78030       -5.04049
C         -2.62006       -3.44353       -1.66161
C         -1.72590       -3.38238       -0.59890
C         -1.42585       -2.13135       -0.07457
C         -2.00610       -0.99755       -0.59504
C         -2.90170       -1.08228       -1.63266
C         -3.23107       -2.31249       -2.18693
H         -2.86815       -4.39795       -2.08610
H         -0.74469       -2.04540        0.75318
H         -3.35655       -0.17815       -1.99669
C         -5.88630        2.26126        0.94284
C         -5.32610        2.40367       -0.32093
C         -4.04170        1.91244       -0.52140
C         -3.35999        1.30135        0.50268
C         -3.92984        1.17187        1.74260
C         -5.20675        1.65278        1.99183
H         -6.87875        2.63710        1.10632
H         -3.55794        2.00657       -1.47887
H         -3.36271        0.70536        2.52705
C          3.80714       -3.67726        1.72595
C          2.72615       -3.16501        2.42988
C          2.03568       -2.09752        1.87284
C          2.42923       -1.54812        0.67519
C          3.51976       -2.05511        0.01054
C          4.22548       -3.13925        0.51681
H          4.34033       -4.51680        2.13276
H          1.18925       -1.68586        2.38881
H          3.81491       -1.60280       -0.91890
C          4.52900        3.17331       -0.87623
C          3.62482        3.32149        0.16772
C          2.73830        2.28122        0.41008
C          2.74506        1.15900       -0.37873
C          3.62728        1.04135       -1.42508
C          4.54835        2.04807       -1.69088
H          5.24726        3.95291       -1.05039
H          2.04143        2.33378        1.22641
H          3.57597        0.16652       -2.04928
Pd         0.04388        0.39166        1.63215
C         -1.65573       -5.93041       -0.62206
C         -1.12812       -4.64441        0.04324
C         -1.51462       -4.67683        1.53353
C          0.40302       -4.62356       -0.09612
H         -2.74014       -5.99947       -0.53781
H         -1.38604       -5.96549       -1.67745
H         -1.23109       -6.81369       -0.14502
H         -2.59808       -4.66109        1.64975
H         -1.13751       -5.57782        2.01651
H         -1.11044       -3.81678        2.06478
H          0.69327       -4.62284       -1.14605
H          0.82639       -3.73856        0.37363
H          0.85215       -5.49811        0.37391
C         -3.60216       -3.04002       -4.56001
C         -4.27266       -2.45104       -3.30697
C         -4.89632       -1.08979       -3.67445
C         -5.40328       -3.38554       -2.83628
H         -4.32429       -3.16493       -5.36669
H         -2.81108       -2.38263       -4.91699
H         -3.16048       -4.01389       -4.35186
H         -5.39159       -0.64172       -2.81320
H         -4.14036       -0.39491       -4.03768
H         -5.64182       -1.20496       -4.46110
H         -6.17610       -3.47749       -3.59926
H         -5.02929       -4.38561       -2.62076
H         -5.86855       -2.99906       -1.92963
C         -6.49012        4.50954       -1.02977
C         -6.12689        3.07271       -1.44702
C         -7.41161        2.26421       -1.70499
C         -5.31913        3.13561       -2.75890
H         -7.10926        4.51789       -0.13354
H         -5.59043        5.08800       -0.82055
H         -7.04201        5.01758       -1.82044
H         -7.99344        2.70397       -2.51487
H         -7.17129        1.23759       -1.98078
H         -8.04439        2.23278       -0.81881
H         -5.89877        3.61544       -3.54736
H         -4.40200        3.70975       -2.62799
H         -5.05528        2.13694       -3.10633
C         -5.87945        0.00090        3.75300
C         -5.80619        1.49735        3.39661
C         -7.22530        2.09112        3.48120
C         -4.90859        2.22754        4.41331
H         -6.48992       -0.53785        3.02858
H         -4.88919       -0.45313        3.75915
H         -6.31842       -0.14426        4.73987
H         -7.21912        3.15642        3.25125
H         -7.90187        1.59082        2.78856
H         -7.63446        1.97303        4.48452
H         -5.31753        2.15131        5.42057
H         -3.90416        1.80613        4.42927
H         -4.82335        3.28447        4.16192
C          1.15672       -3.01358        4.43007
C          2.34227       -3.76426        3.79049
C          3.54650       -3.66322        4.74526
C          1.94890       -5.24034        3.60533
H          0.26655       -3.07510        3.80576
H          0.90655       -3.44086        5.40086
H          1.39628       -1.96161        4.58454
H          3.85433       -2.62466        4.86521
H          3.29770       -4.05776        5.73025
H          4.40069       -4.22418        4.36816
H          1.10678       -5.33090        2.92090
H          2.77483       -5.82193        3.19742
H          1.66076       -5.68967        4.55550
C          5.75774       -2.96765       -1.50819
C          5.41958       -3.75421       -0.22602
C          5.07547       -5.20301       -0.61606
C          6.65668       -3.73964        0.69096
H          6.61536       -3.40729       -2.01719
H          4.92147       -2.97584       -2.20713
H          6.00655       -1.93208       -1.27689
H          4.19121       -5.22989       -1.25283
H          5.89815       -5.66721       -1.15966
H          4.87115       -5.81089        0.26469
H          7.52748       -4.14658        0.17721
H          6.89280       -2.72187        1.00113
H          6.49344       -4.33404        1.58900
C          4.98787        4.71775        1.73963
C          3.63264        4.59744        1.02033
C          2.51371        4.57702        2.08110
C          3.41427        5.81972        0.10957
H          5.16382        3.84944        2.37432
H          5.80926        4.78320        1.02700
H          5.01868        5.60767        2.36801
H          2.51832        5.49621        2.66650
H          1.53293        4.48732        1.61440
H          2.64356        3.74563        2.77357
H          2.46646        5.73825       -0.42166
H          3.39660        6.74128        0.69108
H          4.20689        5.90919       -0.63223
C          5.67050        3.19021       -3.64355
C          5.60999        1.90697       -2.79194
C          5.29877        0.72341       -3.72989
C          6.97690        1.66548       -2.12793
H          5.96237        4.05400       -3.04816
H          6.39828        3.08663       -4.44825
H          4.70259        3.40394       -4.09491
H          4.31450        0.83269       -4.18462
H          6.03164        0.66456       -4.53447
H          5.32786       -0.22459       -3.19382
H          7.76108        1.55118       -2.87611
H          7.24864        2.49783       -1.47927
H          6.95501        0.76153       -1.51938
H         -0.67450        1.30655       -5.13857
H          1.13690        2.87086       -4.58133
H         -1.82135        1.43269       -3.80182
H         -2.02283        0.17863       -5.02197
H          1.75867        1.39681       -3.83320
H          2.52670        2.94350       -3.49871
