58
-89.86856336
P          1.51169        0.24290        0.74951
C          1.49008        2.02543        0.52425
C          1.46817        2.88280        1.60111
C          1.45146        4.24965        1.38904
C          1.46275        4.74838        0.10117
C          1.49786        3.88506       -0.97570
C          1.51498        2.52005       -0.75925
H          1.55347        1.82755       -1.58448
H          1.46487        2.48472        2.60255
C          3.16065       -0.40468        0.45064
C          3.34303       -1.72243        0.09817
C          4.62037       -2.20311       -0.12689
C          5.70664       -1.36085        0.00553
C          5.51938       -0.03981        0.36130
C          4.24053        0.43828        0.58449
H          4.07724        1.46842        0.85855
H          2.48739       -2.36831       -0.01515
C          1.01924       -0.24753        2.45723
C          0.40141       -1.64047        2.47925
C         -1.09942       -1.65934        2.22569
P         -1.63731       -0.77046        0.70107
C         -1.80076        1.00759        0.94884
C         -1.81666        1.81567       -0.16548
C         -1.92713        3.18702       -0.02533
C         -2.02538        3.74227        1.23411
C         -2.02189        2.92897        2.34937
C         -1.91437        1.55800        2.20493
H         -1.93138        0.91999        3.07250
H         -1.74132        1.36958       -1.14482
C         -3.20024       -1.45335        0.13516
C         -3.31455       -2.80715       -0.08334
C         -4.51551       -3.33450       -0.52362
C         -5.59491       -2.50121       -0.74119
C         -5.47621       -1.14314       -0.52171
C         -4.27368       -0.61936       -0.08286
H         -4.16684        0.43915        0.08949
H         -2.45874       -3.44469        0.07256
Pd         0.11587       -0.74406       -0.82739
Cl         1.71467       -0.32715       -2.34906
Cl        -1.20644       -1.94367       -2.18047
H         -1.46520       -2.68531        2.14162
H         -1.64110       -1.21195        3.06026
H          0.90970       -2.26391        1.73081
H          0.60930       -2.12877        3.44428
H          1.93113       -0.19581        3.05772
H          0.32985        0.49257        2.86299
H          1.42632        4.92419        2.22906
H          1.51193        4.27199       -1.98128
H          4.76592       -3.23267       -0.40994
H          6.36641        0.61866        0.46241
H         -1.92879        3.81961       -0.89767
H         -2.10343        3.36193        3.33287
H         -4.60543       -4.39347       -0.70182
H         -6.31715       -0.49168       -0.69409
H          1.44632        5.81339       -0.06354
H          6.70194       -1.73448       -0.17198
H         -2.10419        4.81128        1.34667
H         -6.53019       -2.91096       -1.08629
