64
-97.22284773
Cl        -1.27999       -0.37434       -2.80221
Cl         1.95336       -0.66174       -2.90450
P          1.96116       -0.66233        0.38931
C          2.06931       -2.40982        1.00200
C          3.77979       -0.30721        0.23829
P         -1.26662       -0.32079        0.33772
C          1.15686        0.47423        1.57557
C         -0.28640        0.61659        1.57427
C         -0.63784        1.62535        2.56340
C          0.59553        2.12225        3.14886
C          1.70608        1.40422        2.54811
H         -1.64881        1.92880        2.84216
H          0.67234        2.87975        3.93215
Pd         0.37601       -0.68789       -1.32092
H          2.76512        1.53990        2.77515
C         -5.18997        1.63646       -0.92776
C         -4.30477        2.34888       -0.14374
C         -3.11273        1.76956        0.24887
C         -2.80410        0.48782       -0.14577
C         -3.68999       -0.22680       -0.91965
C         -4.88508        0.34709       -1.31556
H         -6.11932        2.08663       -1.23666
H         -4.54136        3.35497        0.16172
H         -2.41929        2.31666        0.86171
H         -3.43763       -1.23199       -1.21878
H         -5.57395       -0.21138       -1.92781
C         -2.38000       -4.42771        1.92668
C         -2.46959       -3.31951        2.74652
C         -2.13341       -2.07042        2.25525
C         -1.70737       -1.94339        0.95332
C         -1.62697       -3.04139        0.12827
C         -1.96167       -4.29097        0.61731
H         -2.64090       -5.40127        2.30858
H         -2.79964       -3.42625        3.76679
H         -2.19384       -1.19357        2.88077
H         -1.31276       -2.91534       -0.89538
H         -1.89773       -5.15497       -0.02358
C          4.16923        0.59165       -0.91455
H          4.06535        0.15342        1.19329
C          4.38313       -1.71879        0.14254
H          5.44184       -1.70466        0.44371
C          3.57567       -2.73594        0.98899
H          4.37976       -2.03094       -0.91120
C          1.44457       -2.52930        2.37519
H          1.53028       -3.02224        0.26693
H          3.94829       -2.72331        2.02207
H          3.74311       -3.76289        0.63200
H          1.49825       -3.55323        2.75230
H          1.95872       -1.88261        3.08904
H          0.39662       -2.22800        2.36432
H          3.81309        0.18669       -1.86126
H          3.75803        1.59417       -0.80244
H          5.25429        0.68835       -0.98930
Fe         0.58226        2.36716        1.11048
C          1.23396        2.46918       -0.84317
C          1.91335        3.44876       -0.01518
C          0.91052        4.32927        0.55913
C         -0.39212        3.87595        0.10446
C         -0.18990        2.72157       -0.75251
H          1.69321        1.70331       -1.47125
H          2.99335        3.54808        0.11424
H          1.10291        5.18758        1.20673
H         -1.34929        4.35089        0.33105
H         -0.96057        2.16741       -1.29244
