111
-148.55521278
P         -2.66580       -1.99631        0.04882
P          0.07202       -0.46435       -0.33845
C         -1.83825       -2.02063       -1.56764
C         -0.62675       -1.38313       -1.72112
C         -3.68592       -3.52715        0.26232
C         -3.41249       -4.18909        1.59448
C         -2.41574       -2.66326       -2.64480
H         -3.37383       -3.14253       -2.52989
C         -1.76953       -2.67593       -3.86883
H         -2.21968       -3.17948       -4.70874
C         -0.55100       -2.04196       -4.01639
H         -0.04837       -2.05035       -4.96953
C          0.01941       -1.38765       -2.93966
H          0.96418       -0.87710       -3.04158
Pd        -1.02614       -1.30090        1.52289
Cl        -2.33370       -1.76428        3.27974
Cl         0.68609       -0.57590        2.78257
C         -5.12747       -2.99619        0.11520
C         -3.98063       -0.69899        0.15786
H         -3.99471       -5.10572        1.71522
H         -2.35517       -4.44127        1.70427
H         -3.67823       -3.52114        2.41517
H         -5.81092       -3.62055        0.70927
H         -5.46128       -3.10176       -0.92755
H         -3.68620       -0.02065        0.97002
C         -5.23892       -1.50498        0.54203
C         -4.10187        0.05878       -1.14703
H         -3.42413       -4.20767       -0.55870
H         -6.12596       -1.03772        0.09012
H         -5.39798       -1.45060        1.62913
H         -4.87690        0.82717       -1.09480
H         -3.16094        0.54671       -1.41292
H         -4.36151       -0.61943       -1.96205
C         -1.30131        3.85471       -0.83264
C         -1.64440        3.14388        0.34491
C         -1.21461        1.83446        0.46883
C         -0.42940        1.25053       -0.49064
C         -0.00987        1.96668       -1.58105
C         -0.39157        3.28643       -1.76044
O         -1.89410        5.11823       -1.09659
C         -2.49680        3.75998        1.46541
H         -1.49451        1.25326        1.32806
H          0.62061        1.47400       -2.30088
C          0.16019        4.06649       -2.96402
C          4.59568       -0.83116        0.03362
C          3.85627       -1.88413       -0.56407
C          2.47924       -1.75578       -0.64606
C          1.85269       -0.60599       -0.24217
C          2.57363        0.45517        0.23837
C          3.95186        0.39043        0.35628
O          5.96925       -1.01429        0.34483
C          4.52081       -3.16296       -1.09796
H          1.87196       -2.56031       -1.02332
H          2.03613        1.33747        0.54077
C          4.71342        1.62251        0.86872
C         -3.98408        3.51495        1.16844
C         -2.15696        3.11613        2.82951
C         -2.22336        5.26892        1.59940
C          0.28723        5.56692       -2.64313
C          1.57533        3.56692       -3.33433
C         -0.76530        3.85812       -4.17220
C         -3.10368        5.04708       -1.84111
H         -4.27746        3.96458        0.22313
H         -4.19431        2.44776        1.10692
H         -4.61309        3.93731        1.95159
H         -2.65768        3.64303        3.64135
H         -2.48014        2.07723        2.87756
H         -1.08449        3.15131        3.01905
H         -2.77994        5.69568        2.43339
H         -1.16306        5.45290        1.76935
H         -2.51511        5.80607        0.70027
H          0.74015        6.10838       -3.47329
H         -0.68376        6.01553       -2.44933
H          0.90738        5.71892       -1.76030
H          2.01992        4.19897       -4.10275
H          2.23178        3.58586       -2.46510
H          1.55591        2.55180       -3.72787
H         -0.83371        2.80071       -4.42694
H         -1.77169        4.21334       -3.96416
H         -0.39327        4.39268       -5.04588
H         -2.98899        5.58930       -2.77947
H         -3.36183        4.00814       -2.05037
H         -3.90856        5.51537       -1.27477
C          6.19992       -1.55720        1.63885
C          5.93772       -2.87425       -1.62668
C          4.57742       -4.21271        0.02199
C          3.71108       -3.74382       -2.27987
C          4.78573        1.56889        2.40228
C          6.13034        1.69066        0.27084
C          3.98819        2.92313        0.45332
H          6.38209       -3.76748       -2.06504
H          5.91127       -2.09835       -2.39105
H          6.59715       -2.53608       -0.83134
H          5.15882       -3.85509        0.86840
H          3.57584       -4.44519        0.38296
H          5.03214       -5.13750       -0.33215
H          2.74363       -4.12602       -1.95786
H          3.54328       -2.98555       -3.04436
H          4.24416       -4.57376       -2.74316
H          5.30747        2.43895        2.79993
H          3.78524        1.54752        2.83378
H          5.30971        0.67831        2.74095
H          6.73560        0.84441        0.58575
H          6.08795        1.68407       -0.81780
H          6.64497        2.59837        0.58499
H          3.03167        3.03387        0.96185
H          3.80990        2.93946       -0.62130
H          4.58712        3.79771        0.70618
H          6.75058       -2.49352        1.54991
H          6.80132       -0.86292        2.22542
H          5.25286       -1.73852        2.14881
