59
-75.80708702
Cl         1.60282        0.74669        2.31599
P          1.58469       -0.03502       -0.81170
P         -1.58904       -0.18376       -0.76629
C          0.60954        0.06512       -2.37825
H          0.35425        1.10938       -2.56808
H          1.24220       -0.27084       -3.20587
C         -0.63480       -0.76177       -2.23878
H         -0.38005       -1.81426       -2.09749
H         -1.27909       -0.69618       -3.12113
C          2.65219       -1.55179       -0.85278
H          2.21271       -2.25548       -1.57051
C          2.91352        1.26289       -0.70044
H          2.81995        1.70624        0.29910
C         -3.00191       -1.31880       -0.34605
H         -2.97807       -1.42957        0.74554
C         -2.56187        1.33205       -1.20970
H         -2.05517        1.83573       -2.04202
C          3.98571       -0.97469       -1.36809
H          4.81557       -1.64263       -1.09234
H          3.97843       -0.94667       -2.46818
C          4.22572        0.45599       -0.81675
H          4.93686        0.99840       -1.45592
H          4.71220        0.38952        0.16737
C         -4.25668       -0.52929       -0.78487
H         -4.93623       -1.19622       -1.33411
H         -4.82290       -0.20538        0.10052
C         -3.90148        0.70916       -1.65129
H         -4.70163        1.46293       -1.60017
H         -3.84022        0.41118       -2.70899
C          2.79066       -2.20709        0.52249
H          2.98661       -1.42251        1.26530
H          3.69129       -2.83693        0.52657
C          2.78148        2.36151       -1.75200
H          3.72400        2.92440       -1.80263
H          2.67342        1.89596       -2.74001
C         -2.89277       -2.69597       -0.99380
H         -3.85783       -3.21324       -0.89957
H         -2.74007       -2.56982       -2.07329
C         -2.72270        2.28261       -0.02076
H         -3.60606        2.91489       -0.18745
H         -2.96157        1.68747        0.87065
C          1.59143       -3.04430        0.93749
H          1.73926       -3.51348        1.91287
H          1.39905       -3.84145        0.21696
H          0.68608       -2.44299        1.00644
C          1.63477        3.32078       -1.47643
H          1.76637        3.82736       -0.51829
H          0.68091        2.79740       -1.42968
H          1.54868        4.09090       -2.24642
C         -1.79525       -3.55686       -0.38986
H         -0.82018       -3.08218       -0.48794
H         -1.73171       -4.53729       -0.86746
H         -1.96373       -3.72049        0.67632
C         -1.51482        3.16857        0.24046
H         -1.30104        3.80583       -0.61956
H         -1.66818        3.82350        1.10118
H         -0.61949        2.58136        0.44073
Cl        -1.59863       -0.12546        2.42877
Pd         0.01365        0.07852        0.88557
