115
-277.94322166
P         -1.99577       -0.24041       -0.03138
P          1.69651        0.75946       -0.16637
C         -1.92117       -2.02381        0.23471
C         -0.73347       -2.64338        0.56234
H          0.12563       -2.06176        0.85163
C         -0.62977       -4.01524        0.46450
H          0.31636       -4.51349        0.61120
C         -1.71376       -4.76719        0.04485
C         -2.93624       -4.14522       -0.15219
H         -3.77311       -4.73321       -0.49286
C         -3.04278       -2.77384       -0.04551
H         -3.97600       -2.28154       -0.27199
C         -3.54328        0.41371        0.62608
C         -4.23732       -0.24465        1.61455
H         -3.84404       -1.15992        2.02724
C         -5.42233        0.27876        2.08791
H         -5.98147       -0.22964        2.85720
C         -5.91738        1.46349        1.57585
C         -5.21526        2.11626        0.58244
H         -5.62294        3.02955        0.17885
C         -4.02770        1.59428        0.11143
H         -3.48432        2.09946       -0.67000
C         -1.78249        0.30606       -1.76217
C         -1.22137        1.56882       -1.83970
H         -0.91448        2.06279       -0.93305
C         -0.89906        2.14749       -3.06748
C         -1.36565        1.52179       -4.21694
H         -1.16392        1.96586       -5.17740
C         -1.92932        0.26396       -4.14856
H         -2.16581       -0.25748       -5.06056
C         -2.03883       -0.41538       -2.93529
C          1.40995        0.23907       -1.89349
C          0.84210       -1.01903       -1.93936
H          0.58448       -1.50693       -1.01691
C          0.44343       -1.59878       -3.14278
C          0.83818       -0.97409       -4.31921
H          0.57904       -1.41905       -5.26535
C          1.40814        0.28298       -4.28451
H          1.58984        0.80375       -5.20944
C          1.59383        0.96270       -3.07997
C         -2.09181       -1.92571       -2.99387
H         -2.74456       -2.22361       -3.82215
H         -2.59934       -2.29967       -2.10771
C         -0.67847       -2.60308       -3.15192
H         -0.50704       -3.33974       -2.36013
H         -0.63087       -3.18811       -4.07734
C          0.21844        3.15214       -3.16335
H          0.12340        3.88053       -2.35175
H          0.09150        3.74830       -4.07420
C          1.63821        2.47395       -3.14510
H          2.20879        2.77739       -4.03073
H          2.23173        2.86084       -2.32006
C          2.25742        2.46542       -0.10562
C          1.35071        3.47830        0.11759
C          3.54669        2.74987       -0.50434
C          1.69801        4.77946       -0.18009
C          3.88601        4.05080       -0.82220
C          2.94054        5.06182       -0.72372
C          3.00676       -0.24498        0.56238
C          3.68745       -1.13603       -0.23490
C          3.34679       -0.10826        1.88754
C          4.70357       -1.89971        0.29997
H          3.42676       -1.23217       -1.27619
C          4.36583       -0.86698        2.42313
H          2.81446        0.59636        2.50407
C          5.04560       -1.77199        1.63287
H          5.24906       -2.60227       -0.31044
H          4.65227       -0.76697        3.45831
Pd        -0.17766        0.56908        1.23051
Cl        -1.69472        0.21817        2.85950
Cl         1.11762        1.79004        2.61472
H          4.84556        4.27235       -1.26121
H          4.24728        1.94594       -0.66888
H          0.97163        5.57499       -0.11799
H          0.35539        3.25010        0.46167
C         -2.71559       -7.05064       -0.41181
C         -1.45306       -6.14568       -0.50746
C         -0.97545       -5.93091       -1.97794
F         -2.38047       -8.30837       -0.73938
F         -3.15493       -7.00401        0.85461
F         -3.66507       -6.58859       -1.23715
F         -0.46627       -6.73761        0.16980
F          0.20014       -5.29017       -1.92706
F         -0.84230       -7.11320       -2.59423
F         -1.86191       -5.15311       -2.61448
C         -8.37248        1.23629        1.26761
C         -7.25126        2.00957        2.01884
C         -7.39685        1.91357        3.56629
F         -8.20674        1.46534       -0.04383
F         -8.24608       -0.07549        1.51697
F         -9.57192        1.68285        1.66921
F         -7.35090        3.29887        1.68338
F         -6.31273        2.48588        4.11103
F         -8.50491        2.56846        3.94628
F         -7.46327        0.62608        3.93293
C          5.99188       -4.08330        1.87435
C          6.17790       -2.57623        2.21843
C          7.52506       -2.00739        1.68823
F          6.89502       -4.80649        2.55417
F          4.74906       -4.43025        2.24178
F          6.14169       -4.26308        0.55455
F          6.18233       -2.46222        3.54945
F          7.61683       -0.73631        2.10774
F          8.54099       -2.73301        2.17938
F          7.52246       -2.04205        0.34764
C          4.55960        6.77194       -1.66936
C          3.07383        6.33421       -1.52320
C          2.38962        6.04281       -2.89762
F          4.60548        7.98787       -2.23567
F          5.09438        6.81399       -0.44005
F          5.22072        5.87989       -2.41976
F          2.40552        7.32550       -0.92874
F          1.09032        5.81848       -2.65859
F          2.54287        7.09280       -3.71529
F          2.92877        4.93697       -3.42920
