64
-97.21746887
Cl        -1.43017       -0.71239       -2.77541
Cl         1.83108       -0.96377       -2.94919
P          1.95711       -0.56960        0.29091
C          2.21170       -2.30851        0.87488
C          3.73101       -0.03990        0.12329
P         -1.28343       -0.26722        0.34585
C          1.16235        0.47802        1.56190
C         -0.27826        0.62962        1.58644
C         -0.60349        1.61711        2.60435
C          0.64327        2.07545        3.19293
C          1.73758        1.34740        2.57537
H         -1.60720        1.93102        2.89758
H          0.73779        2.80574        3.99979
Pd         0.29350       -0.74058       -1.34458
H          2.80037        1.45906        2.79694
C         -5.16710        1.83613       -0.81089
C         -4.22771        2.51530       -0.06136
C         -3.04863        1.88880        0.29668
C         -2.80621        0.59231       -0.09771
C         -3.74634       -0.08786       -0.83807
C         -4.92871        0.53305       -1.19909
H         -6.08658        2.32291       -1.09267
H         -4.41188        3.53229        0.24411
H         -2.31289        2.41229        0.88073
H         -3.54772       -1.10403       -1.13890
H         -5.65976        0.00028       -1.78479
C         -2.39759       -4.40919        1.83980
C         -2.31314       -3.35621        2.73022
C         -1.98064       -2.09304        2.27406
C         -1.73251       -1.89735        0.93532
C         -1.82403       -2.93989        0.04248
C         -2.15598       -4.20334        0.49535
H         -2.65617       -5.39355        2.19464
H         -2.50460       -3.51726        3.77841
H         -1.90618       -1.25929        2.95427
H         -1.64718       -2.75452       -1.00505
H         -2.22761       -5.02349       -0.19999
C          4.17401        0.07581       -1.31907
H          3.82261        0.92883        0.63176
C          4.48616       -1.14394        0.88930
H          4.59879       -0.85799        1.94540
C          3.73860       -2.50103        0.79956
H          5.50854       -1.23644        0.49453
C          1.65340       -2.48117        2.27078
H          1.69081       -2.96543        0.16481
H          4.06504       -3.17804        1.60213
H          4.00768       -3.00412       -0.14056
H          0.58608       -2.25641        2.30258
H          1.79454       -3.50070        2.63726
H          2.15028       -1.80440        2.96877
H          4.04532       -0.87713       -1.83461
H          3.59689        0.82300       -1.86520
H          5.22849        0.35055       -1.39244
Fe         0.61831        2.39503        1.16363
C         -0.12739        2.79437       -0.69823
C          1.26836        2.42151       -0.80842
C          2.04271        3.34587       -0.00406
C          1.12375        4.30337        0.58759
C         -0.21971        3.97538        0.14200
H         -0.95126        2.31105       -1.22756
H          1.65761        1.61467       -1.43048
H          3.12920        3.34581        0.10697
H          1.39954        5.14624        1.22541
H         -1.13104        4.52674        0.38426
