171
-217.84683946
P         -1.57597        0.38117       -0.40510
P          1.61296       -0.37584       -0.24895
C         -0.80961        1.37397       -1.69466
C          0.99779       -1.29942       -1.66449
C          0.04827        0.80434       -2.62890
C          0.70319        1.64499       -3.54984
C          0.44097        3.00455       -3.53100
C         -0.43928        3.54579       -2.61859
C         -1.05402        2.72575       -1.69289
C          1.22483       -2.65363       -1.70761
C          0.71592       -3.41305       -2.74258
C         -0.03445       -2.80776       -3.72782
C         -0.27520       -1.44425       -3.70467
C          0.26415       -0.66695       -2.66141
Cl         1.42139        0.07109        3.00026
Cl        -1.76305       -0.33389        2.78284
C         -1.08205       -0.82488       -4.79196
C          1.66719        1.10290       -4.54676
H         -0.64250        4.60416       -2.62319
H         -1.72970        3.14303       -0.96389
H          1.80716       -3.12133       -0.93096
H          0.90297       -4.47384       -2.77825
H          0.93775        3.64172       -4.24320
H         -0.44275       -3.39678       -4.53174
C         -3.64656       -3.39923       -1.77713
C         -2.75738       -3.46591       -0.71137
C         -2.11397       -2.29624       -0.33223
C         -2.35452       -1.11935       -0.99618
C         -3.23692       -1.06799       -2.04714
C         -3.90699       -2.21521       -2.45701
H         -4.16821       -4.28710       -2.08091
H         -1.43340       -2.29890        0.50184
H         -3.40618       -0.12201       -2.53266
C         -4.60269        2.85540        1.89322
C         -3.25082        3.11651        2.07859
C         -2.33886        2.36496        1.34849
C         -2.77229        1.37923        0.49631
C         -4.11172        1.12422        0.33859
C         -5.05909        1.86541        1.03240
H         -5.32195        3.43504        2.44210
H         -1.28044        2.52886        1.45484
H         -4.41192        0.33284       -0.32437
C          4.36728       -2.91837        2.30984
C          3.02372       -3.26650        2.22260
C          2.20494       -2.49491        1.40858
C          2.70720       -1.40683        0.74005
C          4.03073       -1.06504        0.85627
C          4.89231       -1.81855        1.64054
H          5.01894       -3.51520        2.91808
H          1.15979       -2.73095        1.30561
H          4.39511       -0.19484        0.33914
C          3.84924        3.44327       -1.17237
C          2.80382        3.48253       -0.25740
C          2.10519        2.30635       -0.02311
C          2.44986        1.14836       -0.67443
C          3.48541        1.12414       -1.57561
C          4.21058        2.27988       -1.84182
H          4.41541        4.33604       -1.35951
H          1.29482        2.28871        0.68532
H          3.73168        0.19062       -2.05256
Pd        -0.07408       -0.05019        1.32741
C         -1.00167       -5.14398       -0.10743
C         -2.48069       -4.76001        0.06628
C         -3.35301       -5.92649       -0.43511
C         -2.78400       -4.53111        1.55969
H         -0.76232       -6.04501        0.45697
H         -0.77451       -5.33162       -1.15622
H         -0.34785       -4.34495        0.23803
H         -3.15274       -6.83226        0.13716
H         -4.41307       -5.69633       -0.32965
H         -3.14880       -6.14761       -1.48257
H         -2.61390       -5.44010        2.13630
H         -2.15246       -3.74942        1.97958
H         -3.82226       -4.23110        1.69942
C         -6.33219       -2.54756       -2.98047
C         -4.95674       -2.19680       -3.57753
C         -4.58318       -3.23255       -4.65479
C         -5.05534       -0.81021       -4.24322
H         -7.10670       -2.53020       -3.74704
H         -6.32679       -3.54086       -2.53300
H         -6.60866       -1.83375       -2.20497
H         -5.29728       -3.21269       -5.47790
H         -3.59405       -3.02930       -5.06262
H         -4.57456       -4.24326       -4.24890
H         -5.36267       -0.05054       -3.52483
H         -4.10074       -0.51091       -4.67390
H         -5.79177       -0.81873       -5.04666
C         -1.27281        4.23257        3.22637
C         -2.80639        4.19339        3.07832
C         -3.41312        3.88805        4.46092
C         -3.28948        5.56909        2.58697
H         -0.79646        4.49573        2.28356
H         -0.97291        4.97705        3.96366
H         -0.88599        3.26744        3.55344
H         -3.10925        2.89852        4.80197
H         -3.08306        4.61666        5.20115
H         -4.50161        3.91340        4.43350
H         -2.87519        5.79339        1.60407
H         -4.37563        5.59969        2.50704
H         -2.98129        6.35877        3.27198
C         -7.26247        2.88737        0.40387
C         -6.56480        1.60332        0.88865
C         -7.13709        1.18284        2.25456
C         -6.85082        0.47977       -0.12789
H         -8.33188        2.72395        0.27155
H         -7.13602        3.70106        1.11702
H         -6.84977        3.21195       -0.55120
H         -8.20334        0.96913        2.18231
H         -6.63648        0.28680        2.62103
H         -7.00346        1.96775        2.99806
H         -6.46611        0.73708       -1.11457
H         -6.39617       -0.45945        0.18686
H         -7.92290        0.30974       -0.22588
C          1.06113       -4.13060        3.55023
C          2.44063       -4.48354        2.95534
C          3.35412       -4.93590        4.11168
C          2.29090       -5.63958        1.95262
H          0.32754       -3.92526        2.77261
H          0.67428       -4.95307        4.15150
H          1.13087       -3.24955        4.18787
H          2.89143       -5.74546        4.67605
H          4.31053       -5.30463        3.74250
H          3.54336       -4.11347        4.80137
H          1.65479       -5.34992        1.11747
H          3.26084       -5.92582        1.54637
H          1.84954       -6.51586        2.42707
C          6.99902       -1.42828        0.33916
C          6.36560       -1.39926        1.74274
C          7.16567       -2.34180        2.66173
C          6.44548        0.02843        2.31601
H          8.05072       -1.14525        0.37923
H          6.93358       -2.42693       -0.09225
H          6.49438       -0.73904       -0.33671
H          6.76068       -2.33976        3.67352
H          7.15049       -3.36408        2.28425
H          8.20789       -2.02876        2.72323
H          5.94100        0.74486        1.66854
H          5.97321        0.07544        3.29700
H          7.48161        0.34888        2.42317
C          2.40377        4.46437        2.01821
C          2.40964        4.75563        0.50460
C          1.00608        5.19484        0.05455
C          3.39522        5.90938        0.23797
H          1.67837        3.69379        2.27481
H          3.38427        4.12081        2.34707
H          2.15103        5.35912        2.58677
H          1.00506        5.44143       -1.00661
H          0.27756        4.40109        0.21280
H          0.67386        6.07435        0.60578
H          3.11590        6.79537        0.80808
H          4.40850        5.63345        0.52957
H          3.40122        6.18632       -0.81603
C          5.26011        3.38376       -3.84432
C          5.42729        2.28427       -2.77827
C          5.59812        0.93106       -3.49642
C          6.69377        2.55842       -1.94661
H          5.21147        4.37349       -3.39234
H          6.09800        3.38007       -4.54130
H          4.34588        3.23308       -4.41696
H          4.71429        0.68239       -4.08273
H          6.44912        0.95937       -4.17681
H          5.77633        0.12660       -2.78330
H          6.63750        3.52715       -1.45118
H          6.82142        1.79735       -1.17700
H          7.58329        2.55508       -2.57631
H         -1.90621       -1.47560       -5.08418
H          1.99663        0.09798       -4.27940
H         -0.47073       -0.64636       -5.67742
H         -1.50933        0.12822       -4.47732
H          2.55408        1.73380       -4.60931
H          1.21861        1.06005       -5.54010
