58
-89.86873663
P          1.76841        0.03062        0.67565
C          1.55958        1.80282        0.45080
C          1.34103        2.26634       -0.82724
C          1.14686        3.61730       -1.04870
C          1.17874        4.49729        0.01452
C          1.41483        4.03102        1.29276
C          1.61064        2.67926        1.51062
H          1.81718        2.31096        2.50189
H          1.32479        1.56338       -1.64557
C          3.36831       -0.50945        0.06936
C          3.66683       -1.85257        0.05585
C          4.89394       -2.27850       -0.42103
C          5.81191       -1.35498       -0.88112
C          5.50661       -0.00825       -0.86720
C          4.27884        0.41434       -0.39055
H          4.02369        1.46160       -0.37934
H          2.93509       -2.56312        0.40694
C          1.60374       -0.49916        2.42612
C          0.30014       -0.09080        3.09260
C         -0.91147       -0.89301        2.64519
P         -1.53690       -0.47448        0.96850
C         -1.91953        1.27321        0.77800
C         -2.04162        2.11352        1.86116
C         -2.30844        3.45587        1.66111
C         -2.46107        3.94622        0.37913
C         -2.35717        3.09669       -0.70401
C         -2.08834        1.75628       -0.49986
H         -2.01119        1.07331       -1.33110
H         -1.94402        1.71994        2.85937
C         -2.98230       -1.48755        0.64675
C         -4.21423       -0.89700        0.48158
C         -5.32339       -1.68168        0.22208
C         -5.18845       -3.05289        0.12826
C         -3.94941       -3.64046        0.29249
C         -2.84179       -2.85301        0.55271
H         -1.86557       -3.29605        0.67263
H         -4.30179        0.17526        0.55047
Pd         0.06849       -0.74186       -0.68488
Cl         1.56160       -1.16456       -2.30566
Cl        -1.66486       -1.24947       -2.03157
H         -0.69141       -1.96201        2.65466
H         -1.75854       -0.74138        3.31890
H          0.41041       -0.18626        4.18416
H          0.11795        0.97553        2.91521
H          1.72727       -1.58322        2.45341
H          2.46590       -0.07201        2.94437
H          0.96675        3.97958       -2.04740
H          1.44640        4.71966        2.12106
H          5.12976       -3.32986       -0.43762
H          6.22100        0.71232       -1.23008
H         -2.39705        4.11855        2.50628
H         -2.48101        3.47577       -1.70503
H         -6.28932       -1.22265        0.08967
H         -3.84325       -4.70990        0.21345
H          1.02211        5.55026       -0.15390
H          6.76694       -1.68624       -1.25518
H         -2.66517        4.99309        0.22403
H         -6.05118       -3.66543       -0.07716
