105
-153.07295571
Cl        -0.82887        2.11492       -2.84092
Pd         0.06792        1.50031       -0.86546
P          1.37652        0.73187        0.89195
N          0.67477       -0.52069        1.90295
C          0.04962       -1.73683        1.66604
C         -0.10051       -2.31690        0.38218
C         -0.84588       -3.50562        0.24041
C         -0.99280       -4.10564       -1.13863
C         -1.54010       -5.54157       -1.15707
C         -2.69937       -5.70216       -0.16943
C         -2.24266       -5.37444        1.26013
C         -1.41818       -4.11587        1.35836
C         -1.21552       -3.55685        2.61296
C         -0.49827       -2.39881        2.76445
H         -0.37775       -1.96516        3.74200
H         -1.64737       -4.03825        3.47407
H         -3.11144       -5.28113        1.92443
H         -3.51513       -5.02684       -0.45611
H         -1.85160       -5.82759       -2.17163
H         -1.64778       -3.45384       -1.72858
C          0.66895       -1.83658       -0.79090
C         -0.00223       -1.22838       -1.88668
C          0.71594       -1.00358       -3.06456
C          2.03071       -1.37598       -3.17317
C          2.68715       -2.01352       -2.12761
C          4.09743       -2.49584       -2.34229
C          4.43713       -3.71617       -1.47563
C          4.11073       -3.43123       -0.00668
C          2.63082       -3.05343        0.18825
C          2.00810       -2.24746       -0.93068
H          2.03892       -3.96774        0.31586
H          4.74691       -2.61158        0.34485
H          5.49127       -4.00392       -1.59628
H          4.79055       -1.67734       -2.11980
H          2.56547       -1.19180       -4.08948
H          0.22271       -0.51485       -3.88630
N         -1.34461       -0.83326       -1.82253
P         -1.86726        0.17826       -0.47198
C         -2.81625       -0.74521        0.73406
C         -3.58940       -1.78965        0.28786
C         -4.38202       -2.48808        1.18104
C         -4.41129       -2.13339        2.52300
C         -3.63274       -1.06562        2.94983
C         -2.84427       -0.36571        2.05466
H         -2.24483        0.46669        2.38300
H         -3.64380       -0.78903        3.99025
C         -5.22521       -2.91199        3.49660
H         -4.97940       -3.31639        0.84077
H         -3.56339       -2.05557       -0.75703
C         -2.98826        1.46808       -1.02687
C         -2.96990        2.69468       -0.40572
C         -3.83540        3.68835       -0.82513
C         -4.73269        3.45405       -1.85837
C         -4.73750        2.20693       -2.46878
C         -3.87024        1.21431       -2.04926
H         -3.88054        0.24190       -2.51470
H         -5.42254        2.01891       -3.27777
C         -5.64232        4.53384       -2.33167
H         -3.81528        4.65598       -0.35356
H         -2.27474        2.87389        0.39934
H         -1.69018       -0.36365       -2.64966
H          0.87750       -0.27745        2.86503
C          1.33284        2.23141        1.88050
C          0.12222        2.63049        2.39449
C          0.03841        3.79659        3.13362
C          1.16754        4.57375        3.35452
C          2.38234        4.15014        2.83200
C          2.46293        2.98439        2.09291
H          3.40192        2.66401        1.67228
H          3.26493        4.74226        3.00391
C          1.08468        5.81861        4.16759
H         -0.90710        4.11102        3.54139
H         -0.75300        2.02987        2.20890
C          3.10494        0.37834        0.57814
C          3.70581        0.74133       -0.60328
C          5.05675        0.51473       -0.78730
C          5.81979       -0.06154        0.21893
C          5.19906       -0.40858        1.41137
C          3.84499       -0.18626        1.58994
H          3.36047       -0.44622        2.51784
H          5.78068       -0.85956        2.19715
C          7.26623       -0.34273        0.00574
H          5.52881        0.79162       -1.71450
H          3.12152        1.22477       -1.36799
Cl         1.68553        3.03888       -1.17317
H         -1.65491       -6.20877        1.66112
H         -0.73735       -6.23989       -0.88882
H         -3.12211       -6.71540       -0.22407
H         -0.01936       -4.07228       -1.64385
H          4.37646       -4.29261        0.62205
H          2.50556       -2.49807        1.12554
H          4.24548       -2.72673       -3.40494
H          3.85226       -4.57937       -1.81755
H         -4.61936       -3.67947        3.98032
H         -5.63274       -2.26462        4.27433
H         -6.06375       -3.40648        3.00436
H         -6.56705        4.12072       -2.73695
H         -5.91035        5.20821       -1.51716
H         -5.16570        5.12468       -3.11500
H          0.10036        6.28081        4.08076
H          1.26491        5.60542        5.22211
H          1.82360        6.55167        3.84096
H          7.40698       -1.32864       -0.43967
H          7.71644        0.39486       -0.66006
H          7.81578       -0.31722        0.94773
