58
-89.86609554
P          1.77043       -0.03499        0.68967
C          1.90889        1.74894        0.48706
C          0.79448        2.51879        0.72925
C          0.85059        3.89081        0.57039
C          2.02809        4.48588        0.16429
C          3.14233        3.71079       -0.09081
C          3.07991        2.33834        0.06819
H          3.93667        1.72413       -0.15137
H         -0.13064        2.03993        0.99884
C          3.24900       -0.90352        0.13846
C          3.17042       -1.89329       -0.81501
C          4.31270       -2.56744       -1.20662
C          5.52833       -2.25326       -0.63261
C          5.60266       -1.27147        0.33516
C          4.45782       -0.59909        0.72439
H          4.50137        0.15771        1.49182
H          2.21682       -2.13192       -1.25718
C          1.57946       -0.45167        2.47032
C          0.25721       -0.04629        3.09560
C         -0.91972       -0.88333        2.62153
P         -1.54423       -0.45656        0.94595
C         -2.31008        1.17142        0.91113
C         -2.52493        1.89734        2.06124
C         -3.08270        3.16049        1.98143
C         -3.42610        3.68743        0.75202
C         -3.21824        2.95309       -0.39825
C         -2.65954        1.69174       -0.31422
H         -2.48623        1.10262       -1.20069
H         -2.25959        1.47918        3.01806
C         -2.73988       -1.72370        0.51681
C         -2.29556       -2.99076        0.21614
C         -3.20685       -3.97351       -0.12778
C         -4.55544       -3.67818       -0.16690
C         -4.99554       -2.40461        0.13594
C         -4.08227       -1.42392        0.47861
H         -4.40913       -0.42322        0.71088
H         -1.23819       -3.20327        0.24334
Pd        -0.00559       -0.33914       -0.78253
Cl         1.46240        0.02678       -2.44645
Cl        -1.64764       -0.80957       -2.24601
H         -0.65548       -1.94242        2.60883
H         -1.77773       -0.78634        3.29123
H          0.33958       -0.12808        4.19073
H          0.06472        1.01628        2.90439
H          1.73129       -1.52901        2.56127
H          2.41974        0.02811        2.97810
H         -0.02670        4.48938        0.75283
H          4.05849        4.17352       -0.41923
H          4.25284       -3.33519       -1.96046
H          6.54986       -1.03019        0.78894
H         -3.24854        3.73309        2.87921
H         -3.48720        3.36095       -1.35869
H         -2.86325       -4.96598       -0.36891
H         -6.04747       -2.17321        0.10183
H          2.07508        5.55516        0.03727
H          6.41950       -2.77691       -0.93816
H         -3.85960        4.67233        0.69058
H         -5.26568       -4.44242       -0.43746
