171
-217.84647535
P         -1.62821        0.34154       -0.45414
P          1.65568       -0.40738       -0.17243
C         -0.79243        1.30662       -1.71663
C          1.03352       -1.37633       -1.55172
C          0.08384        0.69016       -2.60236
C          0.76930        1.48546       -3.54063
C          0.53659        2.85050       -3.56992
C         -0.34911        3.43983       -2.69275
C         -1.00945        2.66196       -1.76210
C          1.25290       -2.73225       -1.53292
C          0.73073       -3.53500       -2.52784
C         -0.02899       -2.97048       -3.53047
C         -0.26520       -1.60630       -3.56622
C          0.29053       -0.78403       -2.56748
Cl         1.27390        0.20718        3.01418
Cl        -1.83628       -0.50344        2.68209
C         -1.10178       -1.03960       -4.65977
C          1.71629        0.88058       -4.51714
H         -0.52655        4.50206       -2.73361
H         -1.70185        3.11394       -1.07070
H          1.83326       -3.16602       -0.73461
H          0.91102       -4.59747       -2.51512
H          1.05858        3.45367       -4.29354
H         -0.45295       -3.59324       -4.30016
C         -3.79789       -3.28778       -2.04692
C         -2.84408       -3.46280       -1.05228
C         -2.18422       -2.33499       -0.58091
C         -2.45880       -1.09952       -1.11158
C         -3.39136       -0.94421       -2.10747
C         -4.08839       -2.04427       -2.59397
H         -4.34604       -4.14479       -2.39228
H         -1.45669       -2.40783        0.20875
H         -3.57662        0.04530       -2.48994
C         -4.53222        2.83147        1.98286
C         -3.17807        3.14035        2.03589
C         -2.31261        2.38982        1.25108
C         -2.78401        1.35693        0.47958
C         -4.12175        1.05110        0.45844
C         -5.02808        1.79223        1.20529
H         -5.22488        3.40644        2.56789
H         -1.25674        2.59865        1.25050
H         -4.45176        0.21874       -0.13678
C          4.44911       -2.78134        2.49839
C          3.10362       -3.12909        2.47003
C          2.26160       -2.41110        1.62942
C          2.75481       -1.38537        0.86182
C          4.08588       -1.05378        0.90678
C          4.96497       -1.74834        1.72506
H          5.10350       -3.32443        3.15394
H          1.20814       -2.62787        1.58728
H          4.44205       -0.23176        0.31093
C          3.85791        3.40389       -1.19779
C          2.83532        3.45003       -0.25773
C          2.14964        2.27346        0.01099
C          2.47655        1.11153       -0.64195
C          3.49023        1.08002       -1.56780
C          4.20805        2.23374       -1.86123
H          4.41632        4.29623       -1.40899
H          1.37185        2.25525        0.75530
H          3.72785        0.14206       -2.04035
Pd        -0.13019       -0.07463        1.28081
C         -1.39111       -4.85334        0.50108
C         -2.58068       -4.86105       -0.47809
C         -2.25716       -5.83814       -1.62421
C         -3.83511       -5.33901        0.27403
H         -1.18893       -5.85793        0.87227
H         -0.48709       -4.49110        0.01242
H         -1.59629       -4.21971        1.36366
H         -1.39956       -5.48826       -2.19746
H         -2.02198       -6.82919       -1.23649
H         -3.09730       -5.94192       -2.30949
H         -3.67878       -6.32719        0.70625
H         -4.08358       -4.65146        1.08235
H         -4.69530       -5.39618       -0.39225
C         -4.93416       -2.88587       -4.81258
C         -5.19701       -1.91169       -3.64809
C         -5.26754       -0.48153       -4.21824
C         -6.54917       -2.24760       -2.99341
H         -5.70122       -2.78822       -5.58068
H         -3.96924       -2.68665       -5.27647
H         -4.93583       -3.92139       -4.47521
H         -5.51506        0.24063       -3.44051
H         -4.31834       -0.19231       -4.66883
H         -6.03570       -0.40945       -4.98808
H         -7.36492       -2.15234       -3.70983
H         -6.55738       -3.26711       -2.60914
H         -6.75146       -1.57578       -2.15992
C         -1.29944        3.88833        3.54574
C         -2.63500        4.29582        2.88892
C         -3.61943        4.67404        4.01346
C         -2.41410        5.51767        1.98221
H         -0.51803        3.73135        2.80462
H         -0.94823        4.66279        4.22730
H         -1.41502        2.96548        4.11380
H         -3.86366        3.80476        4.62384
H         -3.18718        5.43115        4.66763
H         -4.54493        5.08464        3.61127
H         -3.35453        5.84361        1.53817
H         -1.99626        6.35288        2.54399
H         -1.72988        5.27927        1.16922
C         -6.94887        1.05251        2.63189
C         -6.53000        1.47425        1.21206
C         -6.87131        0.32821        0.23882
C         -7.32125        2.72419        0.78425
H         -8.00876        0.80137        2.66837
H         -6.38270        0.17930        2.95553
H         -6.76936        1.85165        3.35021
H         -7.94196        0.12426        0.24061
H         -6.58527        0.58465       -0.78107
H         -6.36117       -0.59275        0.52071
H         -7.01412        3.05233       -0.20864
H         -8.39090        2.51710        0.75528
H         -7.16215        3.55151        1.47467
C          1.07803       -4.49820        3.17223
C          2.58117       -4.24036        3.39118
C          2.79475       -3.81923        4.85634
C          3.34423       -5.54681        3.10518
H          0.48947       -3.60746        3.39155
H          0.88356       -4.79951        2.14376
H          0.72210       -5.29613        3.82369
H          3.85150       -3.66966        5.07463
H          2.27478       -2.88447        5.06551
H          2.41557       -4.57807        5.54050
H          2.97311       -6.35934        3.72964
H          3.22499       -5.84105        2.06255
H          4.40979       -5.43675        3.30244
C          6.54336        0.13154        2.22799
C          6.44215       -1.33198        1.75790
C          7.03776       -1.46192        0.34346
C          7.26232       -2.21410        2.71819
H          6.02163        0.80360        1.54739
H          6.10077        0.24901        3.21689
H          7.58317        0.45345        2.28190
H          8.09217       -1.18631        0.33694
H          6.95380       -2.48695       -0.01703
H          6.52079       -0.81541       -0.36456
H          8.30854       -1.90851        2.72545
H          6.88904       -2.13480        3.73902
H          7.22628       -3.26073        2.41640
C          1.00986        5.10553        0.17865
C          2.46341        4.72661        0.50866
C          3.37559        5.90877        0.12978
C          2.60236        4.46845        2.02130
H          0.70128        5.99196        0.73244
H          0.90055        5.31635       -0.88451
H          0.32772        4.29506        0.42962
H          3.10001        6.80342        0.68804
H          4.41859        5.68705        0.35521
H          3.29257        6.14427       -0.93110
H          1.94259        3.66714        2.35088
H          3.62372        4.18096        2.26979
H          2.35312        5.36129        2.59439
C          6.68423        2.55059       -2.02521
C          5.40564        2.23161       -2.82210
C          5.19656        3.29768       -3.91404
C          5.58765        0.86145       -3.50428
H          6.62299        3.53269       -1.55760
H          6.83992        1.81463       -1.23649
H          7.56065        2.54237       -2.67297
H          6.02108        3.29145       -4.62676
H          4.27477        3.11364       -4.46430
H          5.13590        4.29804       -3.48755
H          4.70132        0.58340       -4.07298
H          6.43010        0.88288       -4.19547
H          5.78575        0.08018       -2.77092
H         -1.99902       -1.64037       -4.80898
H          1.22481        0.69730       -5.47348
H         -0.55169       -1.01903       -5.60156
H         -1.42312       -0.02232       -4.43253
H          2.11055       -0.06896       -4.15257
H          2.56320        1.54217       -4.69993
