171
-217.84294365
P         -1.57283        0.34222       -0.44899
P          1.64306       -0.34220       -0.34177
C         -0.85263        1.34521       -1.75299
C          1.03726       -1.28864       -1.74277
C         -0.00716        0.77541       -2.69717
C          0.60744        1.61192       -3.64807
C          0.32675        2.96826       -3.64112
C         -0.53633        3.50979       -2.71271
C         -1.11864        2.69297       -1.76385
C          1.32859       -2.63004       -1.79194
C          0.82018       -3.41468       -2.80849
C         -0.00393       -2.85022       -3.75872
C         -0.30837       -1.49969       -3.72881
C          0.24285       -0.69169       -2.71521
Cl         1.54945        0.43943        2.80143
Cl        -1.67469       -0.38988        2.73873
C         -1.21990       -0.93762       -4.76347
C          1.52682        1.05336       -4.67663
H         -0.75484        4.56510       -2.72582
H         -1.78902        3.10994       -1.03033
H          1.95519       -3.06673       -1.03096
H          1.05773       -4.46506       -2.85157
H          0.79064        3.60249       -4.37760
H         -0.42372       -3.46205       -4.53941
C         -3.68376       -3.42114       -1.79875
C         -2.71602       -3.51471       -0.80572
C         -2.05079       -2.35224       -0.43990
C         -2.36178       -1.15461       -1.03396
C         -3.32491       -1.07657       -2.00960
C         -4.00880       -2.21774       -2.41311
H         -4.21496       -4.30504       -2.09716
H         -1.29044       -2.37520        0.32148
H         -3.54500       -0.11460       -2.44060
C         -4.51610        2.73314        2.04423
C         -3.17370        3.09285        2.06488
C         -2.29808        2.36970        1.26622
C         -2.74669        1.31512        0.51051
C         -4.07266        0.96128        0.51873
C         -4.98955        1.67261        1.28152
H         -5.21667        3.28368        2.64322
H         -1.25103        2.61878        1.24321
H         -4.38480        0.11544       -0.06684
C          4.19028       -2.81323        2.48707
C          2.85154       -3.14717        2.32268
C          2.10702       -2.40908        1.41269
C          2.67702       -1.36975        0.71897
C          3.99943       -1.04854        0.90016
C          4.78786       -1.77357        1.78529
H          4.78522       -3.35996        3.19411
H          1.06145       -2.62480        1.26993
H          4.40416       -0.20921        0.36348
C          3.90197        3.46396       -1.28631
C          2.84275        3.50569       -0.38749
C          2.15001        2.32743       -0.14703
C          2.50618        1.16424       -0.78201
C          3.55665        1.13744       -1.66653
C          4.28375        2.29240       -1.93165
H          4.45199        4.36488       -1.47763
H          1.33780        2.31180        0.55963
H          3.82257        0.20433       -2.13447
Pd        -0.02868       -0.00051        1.26723
C         -2.29140       -4.65317        1.39948
C         -2.35333       -4.84452       -0.12942
C         -0.98342       -5.30613       -0.65072
C         -3.39470       -5.93944       -0.43242
H         -2.07960       -5.59671        1.90213
H         -1.51270       -3.94824        1.68510
H         -3.24026       -4.27427        1.77839
H         -0.67208       -6.23423       -0.17176
H         -1.01997       -5.47591       -1.72652
H         -0.22225       -4.55143       -0.45888
H         -3.15640       -6.85806        0.10368
H         -4.39212       -5.62431       -0.12619
H         -3.41841       -6.17991       -1.49495
C         -4.84658       -3.17708       -4.58380
C         -5.13864       -2.17315       -3.45225
C         -5.28661       -0.76913       -4.07068
C         -6.46500       -2.54600       -2.76477
H         -4.80033       -4.19838       -4.20818
H         -5.62476       -3.14046       -5.34601
H         -3.89516       -2.95547       -5.06512
H         -4.36417       -0.45444       -4.55764
H         -6.07687       -0.75866       -4.82121
H         -5.54553       -0.03080       -3.31206
H         -6.42345       -3.55119       -2.34662
H         -6.68489       -1.85540       -1.95130
H         -7.29444       -2.51108       -3.47089
C         -2.40500        5.46834        1.97252
C         -2.64839        4.26785        2.90197
C         -1.32780        3.87096        3.59399
C         -3.65493        4.67582        3.99568
H         -3.33373        5.78191        1.49616
H         -2.00327        6.31738        2.52524
H         -1.69861        5.21256        1.18429
H         -0.98284        4.66268        4.25869
H         -1.46037        2.96590        4.18638
H         -0.53520        3.68547        2.87130
H         -4.57531        5.06637        3.56272
H         -3.90468        3.82576        4.63042
H         -3.23910        5.45687        4.63212
C         -7.32187        2.52024        0.90120
C         -6.47870        1.30138        1.31946
C         -6.85473        0.87291        2.74920
C         -6.79786        0.13853        0.35870
H         -8.38383        2.27521        0.89323
H         -7.17938        3.35614        1.58490
H         -7.04511        2.85419       -0.09866
H         -7.90421        0.58489        2.80762
H         -6.25190        0.02193        3.06579
H         -6.68966        1.68174        3.46008
H         -6.24950       -0.76197        0.63487
H         -7.86027       -0.10352        0.38279
H         -6.54142        0.39918       -0.66799
C          3.13658       -4.93270        4.11661
C          2.15974       -4.24316        3.14524
C          1.58419       -5.30711        2.19458
C          1.02023       -3.60797        3.96556
H          3.55267       -4.21868        4.82709
H          2.62859       -5.70867        4.68916
H          3.95791       -5.40466        3.57768
H          0.84853       -4.87183        1.52172
H          2.37311       -5.75009        1.58706
H          1.09500       -6.10635        2.75111
H          0.51171       -4.35566        4.57370
H          1.40922       -2.83709        4.63031
H          0.27733       -3.14198        3.31964
C          6.40660       -0.93794        3.50188
C          6.25871       -1.42066        2.04787
C          6.74994       -0.30379        1.10712
C          7.13676       -2.66533        1.81917
H          7.43814       -0.66133        3.71909
H          5.77692       -0.06697        3.68279
H          6.11230       -1.71449        4.20703
H          7.80101       -0.07885        1.28763
H          6.64983       -0.60490        0.06492
H          6.18646        0.61662        1.25926
H          8.19068       -2.43105        1.96831
H          6.87608       -3.46919        2.50633
H          7.01514       -3.04008        0.80301
C          2.53978        4.51655        1.88571
C          2.43878        4.77790        0.37060
C          0.99083        5.14500        0.00457
C          3.34953        5.96932        0.01843
H          3.55726        4.24009        2.16104
H          2.26420        5.40424        2.45469
H          1.88108        3.70595        2.19414
H          0.30758        4.33278        0.24723
H          0.66419        6.03380        0.54401
H          0.90519        5.34695       -1.06249
H          3.04965        6.86053        0.56966
H          4.38797        5.75786        0.27283
H          3.29383        6.20522       -1.04413
C          6.19287        3.59994       -3.00152
C          5.50103        2.22910       -2.86807
C          5.05446        1.77513       -4.26808
C          6.52166        1.22493       -2.30234
H          7.05348        3.53491       -3.66722
H          5.51278        4.34439       -3.41516
H          6.55080        3.95498       -2.03526
H          5.90582        1.70533       -4.94500
H          4.57639        0.79708       -4.23328
H          4.34737        2.48661       -4.69274
H          6.09655        0.22414       -2.23673
H          7.40720        1.16935       -2.93521
H          6.83966        1.52361       -1.30380
H         -0.74401       -0.93590       -5.74506
H          0.97162        0.69798       -5.54522
H         -1.51495        0.08550       -4.52718
H         -2.13044       -1.53216       -4.83609
H          2.10170        0.21657       -4.27731
H          2.23196        1.80874       -5.02356
