87
-129.18574385
P         -1.59351       -0.29244       -0.36675
P          1.73618        0.38597        0.10956
C         -1.20967        0.97081       -1.58463
C          1.56503       -0.69526       -1.33274
C         -0.13066        0.79341       -2.44195
C          0.15708        1.79801       -3.38738
C         -0.64588        2.92541       -3.43996
C         -1.71268        3.08082       -2.58015
C         -1.99210        2.09750       -1.65184
C          2.29727       -1.85854       -1.29372
C          2.16827       -2.80538       -2.29048
C          1.28573       -2.58785       -3.32510
C          0.52978       -1.43026       -3.38457
C          0.67806       -0.45358       -2.38088
Cl         1.18575       -0.04555        3.22570
Cl        -1.54384       -1.62980        2.52545
H         -2.32440        3.96666       -2.62993
H         -2.82806        2.20691       -0.98114
H          2.97328       -2.03260       -0.47319
H          2.74583       -3.71446       -2.25193
H         -0.42269        3.69095       -4.16360
H          1.16964       -3.32806       -4.09857
C         -2.28397       -4.29562       -2.39319
C         -1.36486       -4.20965       -1.35637
C         -1.18862       -2.98345       -0.72714
C         -1.89169       -1.87783       -1.14520
C         -2.79337       -1.96755       -2.17936
C         -2.99502       -3.18478       -2.80348
H         -2.43799       -5.24398       -2.87912
C         -0.60452       -5.40538       -0.90243
H         -0.49152       -2.89550        0.08910
H         -3.32567       -1.08495       -2.49804
H         -3.70174       -3.26405       -3.61319
C         -5.16131        1.00957        2.14958
C         -5.24249       -0.14290        1.39290
C         -4.16504       -0.54090        0.62422
C         -3.01855        0.21783        0.61345
C         -2.93398        1.36330        1.37074
C         -4.00340        1.77506        2.15567
H         -6.00042        1.32237        2.74731
H         -6.14348       -0.73410        1.40391
H         -4.21039       -1.44411        0.03823
H         -2.03045        1.94826        1.35263
C         -3.90871        3.02607        2.95620
C          5.72679       -0.34245        2.18058
C          5.53499        0.80256        1.43311
C          4.32178        1.02318        0.80848
C          3.30922        0.10087        0.93692
C          3.49965       -1.04080        1.68091
C          4.71449       -1.28301        2.31052
H          6.66749       -0.51208        2.67618
H          6.32831        1.52601        1.33965
H          4.15748        1.91564        0.22733
H          2.69012       -1.74272        1.79674
C          4.89929       -2.50033        3.14631
C          0.99593        4.80906       -0.62615
C          1.89385        4.12650       -1.42358
C          2.13524        2.78391       -1.19866
C          1.47654        2.13839       -0.17912
C          0.60646        2.82355        0.63771
C          0.34629        4.17092        0.42157
H          0.79246        5.84980       -0.81232
H          2.39565        4.63562       -2.23001
H          2.81706        2.23047       -1.82464
H          0.14084        2.31442        1.46382
C         -0.64408        4.89301        1.26541
Pd        -0.05900       -0.38381        1.38884
C          1.30204        1.67189       -4.33128
C         -0.42570       -1.24761       -4.51279
H          1.87056        2.60173       -4.37969
H          1.98878        0.88249       -4.02371
H          0.95186        1.44056       -5.33797
H         -0.96917       -2.17171       -4.71469
H         -1.16406       -0.47639       -4.29109
H          0.09927       -0.96097       -5.42475
H         -1.13017       -5.91410       -0.09323
H         -0.46641       -6.11789       -1.71690
H          0.38458       -5.12454       -0.53729
H         -4.08130        3.90177        2.32889
H         -4.64446        3.03781        3.76146
H         -2.92100        3.12498        3.40902
H          4.37075       -3.35330        2.71807
H          5.95344       -2.76935        3.22662
H          4.51438       -2.33799        4.15401
H         -0.41225        5.95737        1.32308
H         -1.64964        4.78827        0.85524
H         -0.65314        4.49993        2.28307
