75
-122.81866906
P          1.82312       -0.56779       -0.02224
C          1.69674       -1.55297       -1.52147
C          1.63598       -0.95407       -2.75877
C          1.62954       -1.73234       -3.90128
C          1.68324       -3.10802       -3.79602
C          1.73921       -3.70597       -2.55265
C          1.74826       -2.92379       -1.41161
H          1.80986       -3.37487       -0.43366
H          1.77780       -4.77966       -2.47001
H          1.67438       -3.71634       -4.68565
H          1.57744       -1.26519       -4.87091
H          1.58448        0.11992       -2.82495
C          3.14511       -1.30840        0.95025
C          2.88649       -1.90479        2.16283
C          3.91724       -2.48951        2.87527
C          5.19925       -2.48273        2.36272
C          5.45169       -1.89860        1.13751
C          4.41839       -1.31417        0.42746
H          4.59602       -0.87203       -0.54052
H          6.45043       -1.90002        0.73281
H          6.00332       -2.93731        2.91815
H          3.71902       -2.94844        3.82992
H          1.88127       -1.90733        2.55198
C          2.20555        1.14480       -0.42857
C          3.35741        1.79521       -0.05230
C          3.52523        3.14649       -0.32160
C          2.48979        3.83861       -0.94889
C          1.32307        3.20371       -1.31269
C          1.17928        1.83000       -1.06080
O         -0.00185        1.14757       -1.39466
C         -1.19658        1.81394       -1.07795
C         -1.35769        3.18407       -1.33881
C         -2.54144        3.80174       -1.00117
C         -3.57700        3.09650       -0.38895
C         -3.39016        1.75083       -0.10429
C         -2.22028        1.11788       -0.45374
P         -1.81977       -0.58072       -0.01041
C         -3.14232       -1.29677        0.97940
C         -2.91070       -1.77708        2.24779
C         -3.94715       -2.33864        2.97037
C         -5.20804       -2.42327        2.41425
C         -5.43378       -1.95227        1.13628
C         -4.39473       -1.39084        0.41601
H         -4.55145       -1.03238       -0.58957
H         -6.41604       -2.02350        0.69885
H         -6.01651       -2.85990        2.97763
H         -3.77007       -2.70778        3.96720
H         -1.92294       -1.70708        2.67307
C         -1.68001       -1.59742       -1.48490
C         -1.66246       -2.96588       -1.34177
C         -1.64087       -3.77363       -2.46471
C         -1.64179       -3.20341       -3.72237
C         -1.65780       -1.82961       -3.86046
C         -1.67686       -1.02524       -2.73618
H         -1.68180        0.04835       -2.82733
H         -1.65052       -1.38396       -4.84151
H         -1.62291       -3.83171       -4.59784
H         -1.62513       -4.84565       -2.35686
H         -1.67969       -3.39540       -0.35234
Pd         0.00010       -0.04420        1.40868
Cl        -1.56369        1.00272        2.65291
Cl         1.62245        0.84442        2.70225
H         -4.15405        1.20479        0.42027
C         -4.82969        3.78737        0.01673
H         -5.68285        3.10889       -0.02351
H         -5.04522        4.63082       -0.64043
H         -4.74839        4.16608        1.03634
H         -2.65813        4.85228       -1.20080
S         -0.01657        4.07807       -2.08075
H          2.59296        4.89208       -1.14029
C          4.75777        3.85541        0.11364
H          4.12112        1.25894        0.48225
H          5.62422        3.19367        0.07897
H          4.96803        4.71130       -0.52896
H          4.65256        4.21906        1.13653
