171
-217.84777217
P         -1.59645        0.43439       -0.37417
P          1.58951       -0.31524       -0.23361
C         -0.82177        1.48004       -1.61730
C          0.97013       -1.19313       -1.67287
C          0.03763        0.94499       -2.57089
C          0.70803        1.82069       -3.44679
C          0.46994        3.18202       -3.35842
C         -0.40536        3.69104       -2.42311
C         -1.04371        2.83422       -1.54870
C          1.19585       -2.54524       -1.75433
C          0.70387       -3.26749       -2.82399
C         -0.02744       -2.62687       -3.80182
C         -0.26885       -1.26453       -3.73642
C          0.25289       -0.52458       -2.65783
Cl         1.50847        0.44456        2.90742
Cl        -1.67932       -0.19911        2.90101
C         -1.05504       -0.60559       -4.81553
C          1.66960        1.31550       -4.46495
H         -0.58635        4.75211       -2.36899
H         -1.72124        3.22643       -0.80839
H          1.76042       -3.03704       -0.97838
H          0.89097       -4.32647       -2.89412
H          0.98376        3.84637       -4.03269
H         -0.42110       -3.18746       -4.63288
C         -3.49329       -3.40617       -1.82819
C         -2.60772       -3.45591       -0.75860
C         -2.01557       -2.26758       -0.35356
C         -2.30004       -1.08987       -0.99897
C         -3.18102       -1.05514       -2.05178
C         -3.80125       -2.22127       -2.48599
H         -3.97511       -4.30922       -2.15238
H         -1.34183       -2.25600        0.48595
H         -3.39049       -0.10722       -2.51748
C         -4.75649        2.66458        1.99721
C         -3.43015        3.06453        2.11216
C         -2.48146        2.38983        1.35594
C         -2.84815        1.34918        0.53949
C         -4.16087        0.95874        0.44860
C         -5.14650        1.61542        1.17387
H         -5.51040        3.17170        2.56929
H         -1.44184        2.66338        1.42127
H         -4.40843        0.12554       -0.18438
C          4.20128       -3.08938        2.23420
C          2.82096       -3.21475        2.32660
C          2.04071       -2.37457        1.54267
C          2.62392       -1.42110        0.74450
C          3.98959       -1.29280        0.68998
C          4.80974       -2.13398        1.43048
H          4.82254       -3.75402        2.80542
H          0.96763       -2.44658        1.56432
H          4.41219       -0.52455        0.06850
C          3.91272        3.43173       -1.24371
C          2.86258        3.51356       -0.33842
C          2.16733        2.34761       -0.04659
C          2.49655        1.16774       -0.66518
C          3.52044        1.10822       -1.57890
C          4.25945        2.24660       -1.88084
H          4.49123        4.31469       -1.44321
H          1.36787        2.34827        0.67334
H          3.73892        0.16444       -2.04871
Pd        -0.07726        0.08329        1.35731
C         -0.79418       -5.06379       -0.11993
C         -2.29542       -4.74987        0.00579
C         -3.09074       -5.94814       -0.54664
C         -2.66866       -4.56064        1.48857
H         -0.53026       -5.95203        0.45368
H         -0.52720       -5.24400       -1.16041
H         -0.18552       -4.23636        0.24024
H         -2.86023       -6.85498        0.01240
H         -4.16411       -5.77608       -0.46866
H         -2.84461       -6.13418       -1.59193
H         -3.73138       -4.34254        1.59177
H         -2.45058       -5.45972        2.06459
H         -2.11759       -3.73495        1.93618
C         -4.40633       -3.20379       -4.71839
C         -4.84541       -2.22672       -3.61171
C         -5.02147       -0.82697       -4.23217
C         -6.20168       -2.67549       -3.03624
H         -3.42944       -2.92912       -5.11361
H         -4.33835       -4.22418       -4.34336
H         -5.11700       -3.20103       -5.54468
H         -5.37043       -0.10970       -3.48953
H         -4.08534       -0.46077       -4.65148
H         -5.75642       -0.85044       -5.03667
H         -6.97228       -2.67476       -3.80693
H         -6.14284       -3.68212       -2.62388
H         -6.52182       -2.00619       -2.23818
C         -4.13395        4.70354        3.92816
C         -2.98304        4.21059        3.03018
C         -2.49486        5.38421        2.16338
C         -1.83714        3.72194        3.93887
H         -4.52678        3.89160        4.53995
H         -3.79004        5.48930        4.60069
H         -4.94923        5.11549        3.33389
H         -3.29690        5.74936        1.52218
H         -2.15196        6.21274        2.78283
H         -1.66966        5.08002        1.52155
H         -2.14943        2.85218        4.51638
H         -0.95930        3.43859        3.36017
H         -1.53358        4.50125        4.63750
C         -6.83800        0.03947        0.10945
C         -6.62174        1.19568        1.10661
C         -7.47468        2.39439        0.65225
C         -7.07783        0.72992        2.50116
H         -7.89038       -0.24021        0.06303
H         -6.52803        0.32634       -0.89526
H         -6.27552       -0.84584        0.40570
H         -8.52583        2.11732        0.57368
H         -7.40122        3.22340        1.35504
H         -7.14609        2.75214       -0.32338
H         -6.99019        1.53129        3.23389
H         -8.11801        0.40511        2.48381
H         -6.46815       -0.10539        2.84521
C          2.39519       -5.65865        2.64555
C          2.19740       -4.26287        3.25955
C          0.68965       -4.01102        3.46066
C          2.87346       -4.20078        4.64356
H          3.45416       -5.88462        2.52313
H          1.95617       -6.43010        3.27792
H          1.92570       -5.71771        1.66378
H          0.27126       -4.71221        4.18246
H          0.50825       -3.00202        3.83101
H          0.14209       -4.13956        2.52943
H          3.92820       -4.46590        4.58843
H          2.79897       -3.19710        5.06171
H          2.39825       -4.89179        5.33963
C          6.80499       -0.89275        0.45370
C          6.34067       -2.02691        1.38882
C          6.92943       -3.35384        0.87630
C          6.86796       -1.73522        2.80573
H          7.89269       -0.82569        0.43610
H          6.46916       -1.06552       -0.56850
H          6.42048        0.07104        0.78697
H          6.67057       -4.18246        1.53441
H          6.54831       -3.58478       -0.11833
H          8.01648       -3.30153        0.81774
H          6.43868       -0.81107        3.19229
H          6.61217       -2.53733        3.49696
H          7.95269       -1.62954        2.80445
C          1.22780        4.75101        1.16177
C          2.52796        4.84866        0.33977
C          2.33951        5.94002       -0.73101
C          3.68113        5.23633        1.28123
H          0.97010        5.71639        1.59702
H          0.39643        4.43587        0.53207
H          1.33084        4.03970        1.98084
H          1.55836        5.65651       -1.43539
H          2.05441        6.88794       -0.27496
H          3.25523        6.10754       -1.29631
H          3.83234        4.46838        2.03967
H          4.61488        5.35169        0.73169
H          3.47139        6.17740        1.78931
C          5.34930        3.32235       -3.88262
C          5.47257        2.21106       -2.82200
C          5.58823        0.85661       -3.54863
C          6.75020        2.43385       -1.99285
H          6.18543        3.28668       -4.58083
H          4.42971        3.21421       -4.45575
H          5.34428        4.31133       -3.42657
H          6.43287        0.85845       -4.23747
H          5.74520        0.04226       -2.84195
H          4.68994        0.64269       -4.12674
H          6.85580        1.66074       -1.23247
H          7.63687        2.40836       -2.62604
H          6.72653        3.39839       -1.48660
H         -1.50287        0.32668       -4.46854
H          1.23624        1.35587       -5.46519
H         -1.86250       -1.25144       -5.16039
H         -0.42291       -0.37865       -5.67489
H          1.96286        0.28450       -4.26303
H          2.57675        1.91944       -4.47063
