64
-97.22121426
Cl        -1.39613       -0.51252       -2.78910
Cl         1.79949       -0.90064       -2.98176
P          1.96113       -0.60040        0.30155
C          2.20552       -2.33702        0.89404
C          3.73578       -0.07843        0.13395
P         -1.29391       -0.28193        0.34458
C          1.15821        0.45774        1.56079
C         -0.28185        0.62249        1.57530
C         -0.61219        1.60521        2.59578
C          0.63184        2.06409        3.18791
C          1.72718        1.34418        2.56295
H         -1.61717        1.91895        2.88411
H          0.72495        2.79682        3.99241
Pd         0.29997       -0.71806       -1.33330
H          2.78932        1.45642        2.78828
C         -5.18458        1.79554       -0.82481
C         -4.24510        2.48694       -0.08647
C         -3.06337        1.86824        0.27644
C         -2.81980        0.56739       -0.10154
C         -3.75900       -0.12522       -0.83133
C         -4.94389        0.48816       -1.19721
H         -6.10602        2.27631       -1.11040
H         -4.43116        3.50732        0.20626
H         -2.32696        2.39997        0.85218
H         -3.55716       -1.14453       -1.11984
H         -5.67511       -0.05380       -1.77418
C         -2.37478       -4.41972        1.87315
C         -2.33081       -3.35134        2.74790
C         -2.00855       -2.09009        2.27920
C         -1.73070       -1.91143        0.94389
C         -1.78086       -2.96956        0.06617
C         -2.10251       -4.23122        0.53202
H         -2.62523       -5.40268        2.23758
H         -2.54562       -3.49886        3.79356
H         -1.96451       -1.24445        2.94734
H         -1.57817       -2.80019       -0.97936
H         -2.14182       -5.06386       -0.15095
C          4.17801        0.01768       -1.31009
H          3.83120        0.89557        0.63158
C          4.48400       -1.17851        0.91261
H          4.59247       -0.88405        1.96683
C          3.73259       -2.53429        0.83055
H          5.50794       -1.27740        0.52339
C          1.63612       -2.50236        2.28636
H          1.68751       -2.99444        0.18232
H          4.05172       -3.20465        1.64160
H          4.00651       -3.04719       -0.10286
H          0.56952       -2.27291        2.30957
H          1.77011       -3.52123        2.65739
H          2.13074       -1.82527        2.98565
H          4.03635       -0.93852       -1.81634
H          3.60889        0.76650       -1.86248
H          5.23561        0.27900       -1.38778
Fe         0.62564        2.36617        1.13753
C         -0.11988        2.77473       -0.73685
C          1.27975        2.40586       -0.80631
C          2.04471        3.34179       -0.00471
C          1.11138        4.28313        0.58916
C         -0.22637        3.91925        0.15104
H         -0.93404        2.28109       -1.27147
H          1.68532        1.61360       -1.43716
H          3.13070        3.35226        0.11139
H          1.37000        5.12266        1.23851
H         -1.14481        4.46003        0.39182
