58
-89.86903176
P          1.72980       -0.04563        0.68229
C          1.56287        1.74524        0.66681
C          1.39284        2.35863       -0.55385
C          1.23548        3.73020       -0.62388
C          1.25455        4.48095        0.53443
C          1.44109        3.86481        1.75625
C          1.60061        2.49247        1.82193
H          1.76930        2.00832        2.76941
H          1.38606        1.75310       -1.44673
C          3.30350       -0.54762       -0.01917
C          4.27689        0.39134       -0.27301
C          5.48320       -0.00101       -0.82445
C          5.70391       -1.33216       -1.11868
C          4.72325       -2.27045       -0.86329
C          3.51787       -1.87512       -0.31076
H          2.73818       -2.59457       -0.11529
H          4.08676        1.42753       -0.04426
C          1.60641       -0.77087        2.36395
C          0.30456       -0.46773        3.08417
C         -0.89926       -1.21105        2.52999
P         -1.51496       -0.57732        0.91838
C         -1.87179        1.18599        0.95832
C         -2.02587        1.86086        2.14781
C         -2.27627        3.22111        2.13821
C         -2.38133        3.89505        0.93760
C         -2.24676        3.21116       -0.25396
C         -1.99445        1.85167       -0.24084
H         -1.89525        1.30032       -1.16262
H         -1.96703        1.32429        3.08041
C         -2.98710       -1.51075        0.48725
C         -2.91595       -2.88168        0.39269
C         -4.04297       -3.60591        0.04653
C         -5.23253       -2.95053       -0.20346
C         -5.29823       -1.57434       -0.10998
C         -4.16966       -0.85329        0.23565
H         -4.20413        0.22174        0.30580
H         -1.97678       -3.37919        0.57649
Pd         0.05183       -0.65529       -0.79144
Cl         1.51152       -0.48048       -2.49139
Cl        -1.54107       -1.49182       -2.13505
H         -0.67194       -2.27071        2.40154
H         -1.75047       -1.15320        3.21298
H          0.41884       -0.71109        4.15213
H          0.11309        0.61135        3.05444
H          1.75025       -1.84831        2.26471
H          2.46750       -0.38840        2.91754
H          1.09421        4.20895       -1.57883
H          1.46247        4.45270        2.65914
H          6.24682        0.73179       -1.02732
H          4.89332       -3.30828       -1.09824
H         -2.38991        3.75400        3.06795
H         -2.33335        3.73431       -1.19202
H         -3.98984       -4.67926       -0.03318
H         -6.22502       -1.06202       -0.30960
H          1.12661        5.54998        0.48466
H          6.64204       -1.63895       -1.55170
H         -2.57230        4.95578        0.93056
H         -6.11009       -3.51380       -0.47610
