59
-75.81259095
Cl         1.60380        0.64072        2.28923
P          1.61341       -0.07077       -0.85607
P         -1.65176       -0.08787       -0.79667
C          0.57970        0.32033       -2.33387
H          0.32045        1.38165       -2.31580
H          1.17779        0.14155       -3.23274
C         -0.65699       -0.53228       -2.28925
H         -0.39245       -1.59090       -2.22626
H         -1.28644       -0.40132       -3.17515
C          2.51513       -1.65716       -1.20229
H          2.31082       -1.85686       -2.26291
C          3.06865        1.05911       -0.65381
H          3.19737        1.19161        0.42739
C         -2.96685       -1.34269       -0.44584
H         -3.33153       -1.12218        0.56517
C         -2.78516        1.30761       -1.26166
H         -2.31433        1.82865       -2.10422
C          3.99951       -1.28745       -1.03138
H          4.33605       -1.57666       -0.02860
H          4.62146       -1.87228       -1.72584
C          4.23352        0.23385       -1.22721
H          4.33056        0.45645       -2.29887
H          5.18563        0.54830       -0.77293
C         -4.03028       -0.95414       -1.48595
H         -3.78320       -1.45317       -2.43440
H         -5.01581       -1.35032       -1.19514
C         -4.08614        0.58744       -1.70092
H         -4.92551        1.00113       -1.12497
H         -4.31849        0.82037       -2.75066
C          2.03370       -2.83378       -0.35536
H          2.53564       -3.74932       -0.69811
H          0.96871       -2.99820       -0.56481
C          2.88111        2.41561       -1.32238
H          3.84303        2.94703       -1.33006
H          2.63030        2.25982       -2.37960
C         -2.49654       -2.79129       -0.52061
H         -3.37461       -3.44997       -0.57232
H         -1.96567       -2.94911       -1.46738
C         -3.01661        2.27682       -0.10419
H         -3.87663        2.91731       -0.34577
H         -3.32401        1.70058        0.77863
C          2.24522       -2.67245        1.14400
H          1.77512       -3.47959        1.71074
H          1.82832       -1.73465        1.50915
H          3.30324       -2.67367        1.40918
C          1.82359        3.26907       -0.64266
H          0.85535        2.76996       -0.64823
H          1.69755        4.23752       -1.13202
H          2.07897        3.45716        0.40192
C         -1.62405       -3.18896        0.65949
H         -1.26376       -4.21701        0.57868
H         -2.17136       -3.10487        1.60030
H         -0.75340       -2.53942        0.74470
C         -1.81594        3.14791        0.22683
H         -2.04042        3.87009        1.01513
H         -0.97428        2.55050        0.57394
H         -1.48158        3.70944       -0.64752
Cl        -1.55726        0.17669        2.41744
Pd         0.00295        0.11313        0.80241
