115
-277.94175657
P         -2.03979       -0.44930        0.06459
P          1.65806        0.55434       -0.02787
C         -2.17470       -2.23040        0.27088
C         -1.05234       -2.99373        0.50724
H         -0.12215       -2.52413        0.78066
C         -1.11234       -4.35965        0.32879
H         -0.22077       -4.96127        0.40177
C         -2.29274       -4.95991       -0.08108
C         -3.44352       -4.19670       -0.18618
H         -4.35021       -4.67455       -0.52330
C         -3.38568       -2.82852       -0.00769
H         -4.25728       -2.21873       -0.18821
C         -3.53229        0.31283        0.74272
C         -4.21614       -0.26279        1.78900
H         -3.84780       -1.17459        2.23137
C         -5.36328        0.33119        2.27516
H         -5.91795       -0.10921        3.08873
C         -5.82984        1.50462        1.71688
C         -5.13989        2.07380        0.66390
H         -5.52237        2.98014        0.22241
C         -3.99357        1.48035        0.17963
H         -3.46685        1.92043       -0.65041
C         -1.82718        0.06769       -1.67263
C         -1.30853        1.34761       -1.75855
H         -1.01192        1.85502       -0.85532
C         -1.01430        1.92966       -2.99093
C         -1.45997        1.27711       -4.13460
H         -1.28131        1.72296       -5.09877
C         -1.97054       -0.00325       -4.05745
H         -2.18469       -0.54121       -4.96543
C         -2.05029       -0.67818       -2.83944
C          1.36324        0.09455       -1.76935
C          0.84757       -1.18404       -1.85709
H          0.60987       -1.71416       -0.95086
C          0.48586       -1.73836       -3.08402
C          0.86746       -1.06080       -4.23597
H          0.63682       -1.48580       -5.19850
C          1.38469        0.21686       -4.15733
H          1.55235        0.77491       -5.06298
C          1.52938        0.86404       -2.93028
C         -2.02174       -2.19201       -2.88723
H         -2.71894       -2.54158       -3.65691
H         -2.42921       -2.58889       -1.96124
C         -0.58857       -2.78993       -3.14250
H         -0.35503       -3.58160       -2.42239
H         -0.54972       -3.28762       -4.11789
C          0.05905        2.98061       -3.09510
H         -0.11968        3.76309       -2.34989
H         -0.03731        3.49504       -4.05782
C          1.50270        2.37701       -2.94226
H          2.15502        2.74817       -3.74114
H          1.96704        2.75492       -2.03525
C          2.08368        2.29472        0.12241
C          3.34929        2.69005       -0.25786
C          1.10354        3.22860        0.38038
C          3.59308        4.02403       -0.52044
C          1.35446        4.56254        0.13416
C          2.57532        4.95765       -0.38812
C          3.07966       -0.38492        0.57758
C          3.82154       -1.10323       -0.33224
C          3.46073       -0.35300        1.89832
C          4.93909       -1.79647        0.08293
H          3.53141       -1.11528       -1.37018
C          4.58015       -1.04145        2.31539
H          2.88562        0.22230        2.60574
C          5.32355       -1.77157        1.40984
H          5.53522       -2.35726       -0.61942
H          4.90139       -1.01449        3.34483
Pd        -0.20624        0.23200        1.37090
Cl        -1.64500       -0.34305        3.00380
Cl         1.17248        1.23548        2.84476
H          0.57091        5.29930        0.22212
H          0.12607        2.91554        0.70777
H          4.53569        4.33310       -0.94292
H          4.10797        1.94770       -0.45165
C         -1.74708       -6.05919       -2.20048
C         -2.26565       -6.31073       -0.74964
C         -1.38946       -7.32349        0.04243
F         -2.56081       -5.15685       -2.76746
F         -0.51109       -5.54880       -2.14243
F         -1.76134       -7.20674       -2.89184
F         -3.50076       -6.81130       -0.83364
F         -1.48828       -8.53183       -0.53331
F         -0.11406       -6.91180        0.05104
F         -1.85934       -7.36982        1.29811
C         -6.98303        3.64420        2.37058
C         -7.12501        2.10199        2.20486
C         -8.25309        1.71422        1.20631
F         -6.82956        4.21358        1.16697
F         -8.07670        4.12451        2.98213
F         -5.89551        3.87237        3.12208
F         -7.44380        1.59360        3.39840
F         -7.92233        2.14230       -0.02092
F         -8.34681        0.37590        1.20797
F         -9.41128        2.26178        1.60395
C          6.61426       -3.92693        1.31221
C          6.58008       -2.47071        1.86265
C          7.80772       -1.63401        1.40165
F          5.45416       -4.51216        1.64605
F          6.74141       -3.89971       -0.02184
F          7.64204       -4.58561        1.86971
F          6.61122       -2.54091        3.19630
F          7.76386       -1.48306        0.06975
F          7.72112       -0.43421        1.99577
F          8.93761       -2.25527        1.77185
C          4.07374        6.82098       -1.23857
C          2.62276        6.26963       -1.13148
C          1.97782        5.98922       -2.52681
F          4.59140        6.84811       -0.00153
F          4.80653        6.01365       -2.01785
F          4.03572        8.06072       -1.75140
F          1.87707        7.18306       -0.50514
F          2.06474        7.08150       -3.29759
F          2.60142        4.94851       -3.09623
F          0.69563        5.66285       -2.31656
