115
-277.94262451
P         -1.68491       -0.76080       -0.08379
P          1.99475        0.24947       -0.12889
C         -2.23443       -2.46698        0.04931
C         -1.31400       -3.46767        0.27154
H         -0.30847       -3.22356        0.57224
C         -1.66369       -4.77946        0.02841
H         -0.93067       -5.56897        0.08978
C         -2.92318       -5.08549       -0.46045
C         -3.87779       -4.08289       -0.55692
H         -4.85148       -4.32331       -0.95271
C         -3.53537       -2.77074       -0.29316
H         -4.24672       -1.97619       -0.45678
C         -2.98307        0.26788        0.63640
C         -3.29151        0.19370        1.97420
H         -2.74112       -0.47811        2.61142
C         -4.30364        0.97075        2.49658
H         -4.56573        0.91836        3.54163
C         -5.00898        1.83179        1.67999
C         -4.69875        1.89721        0.33501
H         -5.26404        2.56525       -0.29581
C         -3.68937        1.11532       -0.18602
H         -3.45405        1.16316       -1.23666
C         -1.44979       -0.29909       -1.83649
C         -0.88352        0.95621       -1.94052
H         -0.59654        1.47218       -1.04241
C         -0.52616        1.49870       -3.17388
C         -0.96050        0.83863       -4.31643
H         -0.73322        1.25398       -5.28397
C         -1.52919       -0.41612       -4.22371
H         -1.74236       -0.96479       -5.12550
C         -1.67455       -1.05831       -2.99334
C          1.74170       -0.36153       -1.83047
C          1.17837       -1.62563       -1.84384
H          0.89770       -2.08431       -0.91045
C          0.81564       -2.24789       -3.03861
C          1.24353       -1.66427       -4.22466
H          1.00933       -2.14190       -5.16136
C          1.80984       -0.40572       -4.22002
H          2.01618        0.08203       -5.15762
C          1.96014        0.31672       -3.03622
C         -1.72320       -2.57072       -3.01069
H         -2.32560       -2.89945       -3.86568
H         -2.28697       -2.93092       -2.15329
C         -0.30578       -3.25252       -3.05969
H         -0.18097       -3.95377       -2.22847
H         -0.21373       -3.87894       -3.95427
C          0.59443        2.50137       -3.25164
H          0.46138        3.24888       -2.46271
H          0.50310        3.07439       -4.18134
C          2.01292        1.82394       -3.15090
H          2.61595        2.08857       -4.02683
H          2.57414        2.22770       -2.31116
C          1.94506        2.04029        0.07525
C          0.77711        2.68268        0.42841
C          3.06242        2.76807       -0.27211
C          0.68203        4.05139        0.28634
C          2.96412        4.13600       -0.42292
C          1.75542        4.77676       -0.20216
C          3.53909       -0.39595        0.54034
C          4.01118       -1.59668        0.06258
C          4.24192        0.28821        1.50457
C          5.19483       -2.11443        0.54791
H          3.46114       -2.12168       -0.70096
C          5.42284       -0.23101        1.99257
H          3.85934        1.22132        1.88621
C          5.90479       -1.43700        1.51902
H          5.59323       -3.04385        0.17292
H          5.98862        0.29681        2.74371
Pd         0.24891       -0.51447        1.23661
Cl        -1.06288       -1.66156        2.67126
Cl         1.70276        0.01079        2.87052
H          3.79251        4.70322       -0.81559
H          3.98256        2.25827       -0.51321
H         -0.25315        4.56417        0.45176
H         -0.07380        2.11990        0.77403
C         -4.56566       -6.83019       -1.29651
C         -3.07743       -6.38473       -1.21163
C         -2.43756       -6.13933       -2.61604
F         -5.06146       -6.83291       -0.05028
F         -5.25279       -5.96464       -2.05456
F         -4.62554       -8.06416       -1.82096
F         -2.38797       -7.35384       -0.60485
F         -1.13209       -5.90449       -2.42595
F         -2.61317       -7.21702       -3.39213
F         -2.99657       -5.05343       -3.16780
C         -5.97049        4.14462        1.83437
C         -6.13587        2.65365        2.25145
C         -7.48852        2.05017        1.77627
F         -4.72591        4.52022        2.16592
F         -6.14196        4.26098        0.51009
F         -6.87065        4.89035        2.49347
F         -6.11198        2.60147        3.58610
F         -8.50082        2.78602        2.25960
F         -7.51625        2.02842        0.43569
F         -7.55754        0.79703        2.25058
C          8.36231       -1.24803        1.20295
C          7.23272       -1.98315        1.97943
C          7.38004       -1.83779        3.52288
F          8.25195        0.07254        1.40995
F          9.55668       -1.69587        1.61804
F          8.19253       -1.51730       -0.10032
F          7.31748       -3.28391        1.68682
F          8.48050       -2.49272        3.92429
F          7.46163       -0.53977        3.84685
F          6.28948       -2.37908        4.08615
C          2.75671        7.03347       -0.77787
C          1.48516        6.13627       -0.79541
C          0.95391        5.87171       -2.23916
F          3.23989        7.03037        0.47335
F          3.67337        6.53314       -1.61785
F          2.41918        8.28088       -1.14053
F          0.52736        6.76097       -0.10607
F          0.80112        7.03227       -2.89116
F          1.81475        5.06897       -2.87996
F         -0.22058        5.23740       -2.12318
