115
-277.94653132
P         -1.83443       -0.65730       -0.09049
P          1.79864        0.40491       -0.17499
C         -2.11125       -2.42227        0.10998
C         -1.05657       -3.27146        0.36463
H         -0.09564       -2.87704        0.64993
C         -1.21946       -4.62920        0.18367
H         -0.38221       -5.30455        0.26853
C         -2.43049       -5.13278       -0.26208
C         -3.51757       -4.28065       -0.38638
H         -4.45199       -4.67461       -0.75237
C         -3.36020       -2.92282       -0.19149
H         -4.17878       -2.24573       -0.38103
C         -3.25046        0.20065        0.63734
C         -3.88256       -0.28708        1.75803
H         -3.52313       -1.18913        2.22541
C         -4.96698        0.38224        2.28786
H         -5.47193        0.01757        3.16847
C         -5.42445        1.54298        1.69699
C         -4.78806        2.02489        0.56958
H         -5.15794        2.93020        0.11291
C         -3.70507        1.35475        0.04145
H         -3.22204        1.72768       -0.84581
C         -1.65016       -0.17411       -1.84028
C         -1.11978        1.09802       -1.94812
H         -0.80784        1.61063       -1.05401
C         -0.82387        1.66016       -3.18844
C         -1.27097        0.99353       -4.32255
H         -1.08839        1.42354       -5.29312
C         -1.79189       -0.28116       -4.22464
H         -2.00946       -0.83177       -5.12423
C         -1.88031       -0.93546       -2.99555
C          1.53466       -0.13566       -1.89802
C          1.00168       -1.41111       -1.94264
H          0.72913       -1.89546       -1.02011
C          0.65326       -2.01177       -3.15113
C          1.05126       -1.38105       -4.32348
H          0.82711       -1.84088       -5.27142
C          1.57434       -0.10403       -4.28828
H          1.75222        0.41797       -5.21328
C          1.71412        0.58891       -3.08552
C         -1.86259       -2.44933       -3.02097
H         -2.51649       -2.80355       -3.82608
H         -2.33070       -2.83446       -2.11895
C         -0.42312       -3.06258       -3.18661
H         -0.22219       -3.81173       -2.41341
H         -0.35102       -3.61955       -4.12762
C          0.24895        2.70893       -3.29886
H          0.07138        3.48493       -2.54659
H          0.14441        3.23122       -4.25655
C          1.69388        2.10143       -3.15850
H          2.32202        2.42904       -3.99469
H          2.18832        2.51373       -2.28306
C          1.99854        2.18593       -0.01522
C          0.91969        2.99203        0.27707
C          3.20867        2.73768       -0.37908
C          1.01325        4.35308        0.07104
C          3.29735        4.09811       -0.59505
C          2.18079        4.90363       -0.43170
C          3.28232       -0.38631        0.49131
C          3.67336       -1.60509       -0.01455
C          4.02573        0.21685        1.47949
C          4.80880       -2.22270        0.46864
H          3.10226       -2.06691       -0.80202
C          5.15820       -0.40164        1.96625
H          3.71446        1.16896        1.87886
C          5.55456       -1.62738        1.46601
H          5.14204       -3.16853        0.07165
H          5.75238        0.06257        2.73737
Pd         0.01999       -0.15513        1.26252
Cl        -1.29516       -1.07282        2.83951
Cl         1.51869        0.53916        2.79004
H          4.19712        4.52790       -1.00503
H          4.04783        2.09578       -0.59885
H          0.15173        4.99253        0.18705
H         -0.00791        2.56056        0.61429
C         -3.83257       -7.13749       -0.93211
C         -2.42265       -6.47927       -0.94125
C         -1.88521       -6.21957       -2.38484
F         -4.66555       -6.42948       -1.70727
F         -3.73149       -8.39840       -1.38062
F         -4.27665       -7.13091        0.33343
F         -1.57469       -7.30471       -0.32293
F         -1.95507       -7.34490       -3.10832
F         -2.60426       -5.23914       -2.94935
F         -0.61457       -5.81168       -2.27002
C         -6.18649        3.70605        2.69465
C         -6.61177        2.26834        2.27684
C         -7.77087        2.26798        1.23841
F         -5.16660        3.58919        3.55849
F         -5.78583        4.38500        1.61056
F         -7.22283        4.32308        3.28248
F         -7.04720        1.63928        3.37192
F         -7.37746        2.91479        0.13212
F         -8.04450        0.98843        0.94193
F         -8.84897        2.86011        1.77425
C          8.02718       -1.59849        1.21346
C          6.82958       -2.28432        1.93083
C          6.94602       -2.21355        3.48206
F          9.17659       -2.14445        1.63807
F          7.87468       -1.80236       -0.10376
F          8.00178       -0.28291        1.47336
F          6.83167       -3.57450        1.58421
F          7.98608       -2.96211        3.88083
F          7.11114       -0.93905        3.86278
F          5.80506       -2.69725        3.99578
C          3.46898        6.96521       -1.15547
C          2.09125        6.24278       -1.11951
C          1.52705        5.94762       -2.54559
F          3.95054        6.98656        0.09618
F          4.31011        6.29187       -1.95247
F          3.29648        8.21759       -1.60631
F          1.22409        7.03371       -0.48297
F          0.27633        5.49391       -2.39309
F          1.53599        7.06654       -3.28243
F          2.26720        4.98807       -3.11880
