64
-97.22059493
Cl        -1.40475       -0.49142       -2.81922
Cl         1.81521       -0.78094       -2.95415
P          1.95755       -0.62103        0.27523
C          2.18184       -2.36681        0.84983
C          3.74138       -0.11669        0.12459
P         -1.28958       -0.28878        0.36708
C          1.17800        0.43618        1.55051
C         -0.25967        0.61688        1.57998
C         -0.57167        1.60772        2.59878
C          0.68267        2.06174        3.17247
C          1.76429        1.33268        2.53412
H         -1.57100        1.92826        2.89947
H          0.79163        2.79924        3.97070
Pd         0.26543       -0.72148       -1.34207
H          2.82976        1.44075        2.74552
C         -5.16198        1.81469       -0.81445
C         -4.22522        2.49686       -0.06416
C         -3.04880        1.87065        0.30301
C         -2.80788        0.57148       -0.08263
C         -3.74440       -0.11207       -0.82428
C         -4.92393        0.50904       -1.19453
H         -6.07919        2.30146       -1.10352
H         -4.40911        3.51597        0.23432
H         -2.31418        2.39573        0.88714
H         -3.54448       -1.13012       -1.11872
H         -5.65295       -0.02549       -1.78115
C         -2.40404       -4.40215        1.93590
C         -2.12415       -4.23102        0.59402
C         -1.79172       -2.97705        0.11491
C         -1.73879       -1.90915        0.98062
C         -2.02404       -2.07053        2.31664
C         -2.35693       -3.32407        2.79846
H         -2.66291       -5.37912        2.31042
H         -2.16595       -5.07130       -0.07938
H         -1.58258       -2.82210       -0.93157
H         -1.97728       -1.21748        2.97515
H         -2.57763       -3.45800        3.84471
C          4.19738        0.01487       -1.31201
H          3.84487        0.84309        0.64750
C          4.47549       -1.24238        0.87954
H          4.59100       -0.97035        1.93899
C          3.70502       -2.58524        0.77332
H          5.49696       -1.34818        0.48579
C          1.62129       -2.53657        2.24526
H          1.64930       -3.01067        0.13646
H          4.01890       -3.27707        1.56825
H          3.96623       -3.08184       -0.17246
H          0.55829       -2.29245        2.27939
H          1.74395       -3.56047        2.60622
H          2.13095       -1.87269        2.94641
H          5.25803        0.26784       -1.37345
H          4.05098       -0.92539       -1.84585
H          3.64037        0.78480       -1.84750
Fe         0.64245        2.34910        1.12768
C          2.05701        3.30449       -0.00585
C          1.14356        4.27189        0.57839
C         -0.20100        3.92570        0.14901
C         -0.11253        2.76248       -0.71662
C          1.28292        2.38500       -0.81735
H          3.14401        3.30304        0.10304
H          1.41862        5.11087        1.22145
H         -1.11209        4.47727        0.39268
H         -0.93664        2.27979       -1.24641
H          1.67274        1.58331       -1.44678
