75
-122.81813090
P          1.83332       -0.57363       -0.02868
C          1.71688       -1.56309       -1.52809
C          1.52920       -0.96898       -2.75491
C          1.53317       -1.73940       -3.90260
C          1.72098       -3.10431       -3.81332
C          1.90045       -3.69922       -2.58029
C          1.90050       -2.92396       -1.43455
H          2.05805       -3.37188       -0.46610
H          2.04379       -4.76486       -2.50965
H          1.71976       -3.70714       -4.70672
H          1.38214       -1.27532       -4.86331
H          1.36630        0.09431       -2.80806
C          3.15068       -1.30655        0.95647
C          4.42701       -1.31945        0.44118
C          5.45445       -1.90202        1.16115
C          5.19330       -2.47718        2.38877
C          3.90836       -2.47698        2.89387
C          2.88344       -1.89429        2.17143
H          1.87581       -1.89222        2.55436
H          3.70325       -2.92904        3.85035
H          5.99283       -2.93034        2.95188
H          6.45541       -1.90944        0.76206
H          4.61143       -0.88605       -0.52944
C          2.20800        1.13825       -0.44803
C          3.36946        1.78412       -0.09403
C          3.54046        3.13315       -0.37179
C          2.49904        3.82773       -0.98588
C          1.32329        3.19752       -1.32796
C          1.17410        1.82638       -1.06557
O         -0.01753        1.15049       -1.37704
C         -1.20563        1.82774       -1.05660
C         -1.35768        3.19786       -1.32309
C         -2.53261        3.82826       -0.97817
C         -3.56940        3.13607       -0.35356
C         -3.39316        1.78983       -0.06564
C         -2.23276        1.14412       -0.42322
P         -1.85291       -0.56014        0.01639
C         -3.18420       -1.29144        0.98221
C         -2.94550       -1.84358        2.21951
C         -3.98409       -2.41993        2.92736
C         -5.25387       -2.44878        2.38591
C         -5.48618       -1.90836        1.13685
C         -4.44504       -1.33214        0.43148
H         -4.60673       -0.92196       -0.55324
H         -6.47530       -1.93719        0.71017
H         -6.06415       -2.89659        2.93779
H         -3.80168       -2.84384        3.90117
H         -1.94993       -1.81619        2.63184
C         -1.68728       -1.57314       -1.45748
C         -1.79847       -1.01489       -2.71016
C         -1.75759       -1.82508       -3.82974
C         -1.60736       -3.19013       -3.68511
C         -1.49395       -3.74567       -2.42595
C         -1.53678       -2.93257       -1.30749
H         -1.46605       -3.35174       -0.31597
H         -1.37261       -4.81043       -2.31340
H         -1.57144       -3.82254       -4.55707
H         -1.83953       -1.39060       -4.81241
H         -1.91281        0.05232       -2.80622
Pd         0.00596       -0.03184        1.39059
Cl        -1.59904        0.85440        2.70377
Cl         1.64546        0.87232        2.64909
H         -4.15803        1.25330        0.46723
C         -4.81240        3.84019        0.05909
H         -5.02214        4.68647       -0.59629
H         -4.72185        4.21711        1.07857
H         -5.67309        3.17106        0.02262
H         -2.64129        4.87879       -1.18246
S         -0.01864        4.07803       -2.08378
H          2.60528        4.87947       -1.18514
C          4.78418        3.83701        0.03924
H          4.13914        1.24626        0.43019
H          5.64613        3.17009       -0.00669
H          4.98854        4.68849       -0.61108
H          4.69827        4.20631        1.06191
