171
-217.84689942
P         -1.57151        0.34441       -0.41534
P          1.64464       -0.39028       -0.17398
C         -0.77291        1.31826       -1.69386
C          1.02926       -1.35425       -1.56344
C          0.07476        0.70863       -2.61092
C          0.72590        1.50990       -3.56841
C          0.48417        2.87374       -3.58599
C         -0.37498        3.45575       -2.67772
C         -0.99890        2.67207       -1.72673
C          1.24934       -2.71033       -1.54511
C          0.72905       -3.51463       -2.53955
C         -0.03046       -2.95188       -3.54291
C         -0.26724       -1.58795       -3.58012
C          0.28807       -0.76401       -2.58190
Cl         1.35448        0.15949        3.01553
Cl        -1.86838       -0.53330        2.68094
C         -1.11382       -1.02803       -4.66961
C          1.64398        0.91149       -4.57613
H         -0.55924        4.51712       -2.70949
H         -1.66908        3.11644       -1.00859
H          1.82928       -3.14469       -0.74716
H          0.90874       -4.57720       -2.52473
H          0.97785        3.48202       -4.32499
H         -0.45552       -3.57596       -4.31094
C         -3.79203       -3.24884       -2.02143
C         -2.83933       -3.44277       -1.02908
C         -2.16236       -2.32736       -0.55302
C         -2.41673       -1.08597       -1.07950
C         -3.34284       -0.91340       -2.07861
C         -4.05947       -1.99947       -2.56724
H         -4.35838       -4.09491       -2.36415
H         -1.43716       -2.41518        0.23708
H         -3.50866        0.07933       -2.46174
C         -4.51841        2.79872        2.01844
C         -3.16004        3.06857        2.14437
C         -2.27496        2.33831        1.36172
C         -2.73358        1.36143        0.51312
C         -4.07702        1.10030        0.41258
C         -5.00039        1.81945        1.15777
H         -5.21645        3.35597        2.61276
H         -1.21498        2.51311        1.43618
H         -4.41124        0.31326       -0.23992
C          4.52287       -2.79390        2.37840
C          3.18104       -3.15349        2.37254
C          2.31551       -2.42105        1.56971
C          2.78294       -1.37177        0.81726
C          4.11206       -1.02843        0.84004
C          5.01428       -1.73900        1.62053
H          5.20308       -3.34205        3.00409
H          1.26359       -2.64790        1.54430
H          4.43834       -0.18808        0.25435
C          3.71972        3.50063       -1.17302
C          2.71897        3.50148       -0.20900
C          2.06803        2.30179        0.04599
C          2.42407        1.15806       -0.62452
C          3.42471        1.17055       -1.56499
C          4.09731        2.35145       -1.85697
H          4.23420        4.41664       -1.39371
H          1.28489        2.25001        0.78201
H          3.68204        0.24802       -2.05705
Pd        -0.11075       -0.13879        1.34281
C         -1.39920       -4.86172        0.51051
C         -2.59441       -4.84720       -0.46193
C         -2.29103       -5.82380       -1.61400
C         -3.85193       -5.30925        0.29475
H         -0.49321       -4.50938        0.01815
H         -1.59003       -4.23031        1.37799
H         -1.20883       -5.87110        0.87489
H         -2.07041       -6.82038       -1.23196
H         -3.13528       -5.91069       -2.29655
H         -1.42988       -5.48485       -2.18869
H         -4.08547       -4.62162        1.10746
H         -4.71643       -5.35012       -0.36713
H         -3.70854       -6.30169        0.72170
C         -6.53151       -2.07413       -2.92045
C         -5.17544       -1.83809       -3.60929
C         -4.98880       -2.86174       -4.74607
C         -5.17427       -0.42551       -4.22657
H         -6.58780       -3.07775       -2.49990
H         -6.67992       -1.36354       -2.10758
H         -7.35423       -1.95814       -3.62573
H         -4.01519       -2.74333       -5.21983
H         -5.06100       -3.88475       -4.37972
H         -5.75250       -2.73315       -5.51297
H         -5.38021        0.33474       -3.47370
H         -4.21378       -0.20103       -4.68965
H         -5.94183       -0.33897       -4.99551
C         -3.72835        4.75877        3.96433
C         -2.60702        4.09936        3.13884
C         -1.85757        5.19834        2.36658
C         -1.63923        3.39286        4.10829
H         -4.28237        4.01521        4.53700
H         -3.31541        5.47852        4.67104
H         -4.42728        5.29326        3.32126
H         -1.45808        5.95173        3.04526
H         -1.02508        4.77998        1.80518
H         -2.52155        5.69587        1.65995
H         -2.14889        2.59239        4.64397
H         -0.79635        2.95106        3.57863
H         -1.24118        4.09255        4.84278
C         -6.72167        0.01369        1.40014
C         -6.49276        1.48801        1.01619
C         -6.92490        1.71455       -0.44455
C         -7.36394        2.37254        1.92819
H         -7.77730       -0.24836        1.33157
H         -6.16924       -0.65801        0.74398
H         -6.39192       -0.17277        2.42194
H         -7.98414        1.49504       -0.57723
H         -6.75395        2.74936       -0.74058
H         -6.36471        1.07569       -1.12602
H         -7.24472        3.42745        1.68178
H         -8.41908        2.12447        1.81354
H         -7.10399        2.23009        2.97693
C          1.18481       -4.56090        3.08259
C          2.69041       -4.29519        3.27342
C          2.93574       -3.91415        4.74455
C          3.45823       -5.58536        2.93163
H          0.96837       -4.83539        2.05096
H          0.85142       -5.37991        3.71966
H          0.59395       -3.68210        3.34043
H          3.99622       -3.76162        4.94170
H          2.41349       -2.99029        4.99283
H          2.57936       -4.69552        5.41548
H          3.31642       -5.85081        1.88410
H          4.52722       -5.47018        3.10621
H          3.11002       -6.41907        3.54117
C          7.34801       -2.59004        1.26584
C          6.50359       -1.37229        1.68408
C          6.86091       -0.95960        3.12342
C          6.84007       -0.19982        0.74097
H          8.41119       -2.35066        1.27993
H          7.18826       -3.43327        1.93670
H          7.08744       -2.91033        0.25720
H          6.25526       -0.11099        3.44096
H          6.68576       -1.77552        3.82368
H          7.90992       -0.67378        3.19885
H          6.60233       -0.44893       -0.29303
H          6.28669        0.69768        1.01697
H          7.90191        0.04163        0.78666
C          1.02126        5.32839       -0.11380
C          2.30117        4.77848        0.53443
C          3.40101        5.85659        0.46488
C          2.03783        4.46522        2.02179
H          0.22578        4.58520       -0.08747
H          0.67140        6.22237        0.40209
H          1.19979        5.58749       -1.15712
H          4.34825        5.47053        0.84122
H          3.55146        6.20614       -0.55600
H          3.13069        6.72391        1.06715
H          1.80418        5.37436        2.57559
H          1.19891        3.78336        2.14797
H          2.91423        4.00735        2.47981
C          6.54801        2.80412       -2.10135
C          5.26376        2.40900       -2.85388
C          4.96193        3.45600       -3.94252
C          5.49972        1.04629       -3.53403
H          6.44815        3.78433       -1.63653
H          6.77102        2.08328       -1.31531
H          7.40158        2.84050       -2.77803
H          5.76178        3.49035       -4.68203
H          4.03381        3.22040       -4.46116
H          4.86113        4.45374       -3.51734
H          4.61534        0.71933       -4.07918
H          6.32254        1.10707       -4.24620
H          5.75547        0.28095       -2.80159
H         -0.58369       -1.04265       -5.62289
H          2.07240       -0.02486       -4.21588
H         -1.40843        0.00116       -4.46077
H         -2.02662       -1.61270       -4.78593
H          2.46870        1.58673       -4.80396
H          1.11725        0.70562       -5.50876
