58
-89.86890861
P          1.54967        0.24566        0.70952
C          1.51593        2.02147        0.44506
C          1.49801        2.48172       -0.85141
C          1.46893        3.84075       -1.10217
C          1.46500        4.73149       -0.04715
C          1.49620        4.26649        1.25304
C          1.52455        2.90571        1.49991
H          1.55342        2.53298        2.51069
H          1.51105        1.76712       -1.65902
C          3.18251       -0.41010        0.35138
C          3.34639       -1.72959       -0.00368
C          4.61275       -2.21592       -0.27433
C          5.70641       -1.37754       -0.18475
C          5.53765       -0.05474        0.17373
C          4.26978        0.42904        0.44284
H          4.12057        1.46055        0.71999
H          2.48451       -2.37228       -0.08287
C          1.10983       -0.22254        2.43646
C          0.48816       -1.61332        2.49150
C         -1.02103       -1.63193        2.28961
P         -1.61518       -0.76119        0.77491
C         -1.77397        1.01953        1.01007
C         -1.82906        1.58450        2.26365
C         -1.92975        2.95709        2.39712
C         -1.98443        3.75761        1.27397
C         -1.94438        3.18794        0.01778
C         -1.84102        1.81499       -0.11153
H         -1.81049        1.35759       -1.08807
H         -1.80558        0.95671        3.13846
C         -3.19190       -1.45624        0.26688
C         -3.30184       -2.81097        0.05209
C         -4.51350       -3.34898       -0.34387
C         -5.60756       -2.52529       -0.52111
C         -5.49305       -1.16623       -0.30554
C         -4.27991       -0.63169        0.08901
H         -4.17609        0.42770        0.25780
H         -2.43515       -3.44071        0.17669
Pd         0.08845       -0.71878       -0.80625
Cl         1.59539       -0.43031       -2.44725
Cl        -1.28192       -1.91124       -2.12564
H         -1.39067       -2.65827        2.23001
H         -1.53274       -1.17491        3.13775
H          0.96921       -2.24474        1.73177
H          0.72774       -2.09379        3.45309
H          2.04045       -0.16809        3.00723
H          0.43648        0.52484        2.85550
H          1.44919        4.20159       -2.11730
H          1.49512        4.96259        2.07566
H          4.74386       -3.24692       -0.55915
H          6.39034        0.60068        0.24147
H         -1.96569        3.40134        3.37832
H         -1.98588        3.81053       -0.86076
H         -4.60053       -4.40872       -0.51885
H         -6.34556       -0.52231       -0.44660
H          1.43948        5.79181       -0.23872
H          6.69305       -1.75563       -0.39768
H         -2.05775        4.82789        1.37784
H         -6.55126       -2.94335       -0.83157
