100
-131.97626701
C         -1.43635        3.85509       -1.70138
C         -2.17864        2.59061       -1.75511
C         -0.04681        3.55669       -1.67649
C          0.13804        2.08162       -1.72398
C          1.34524        1.46618       -2.33975
C         -1.24522        1.50119       -1.76825
C         -1.64805        0.09050       -2.15921
C         -0.63660       -0.67190       -2.98882
Cl         0.81283       -0.52252        2.78035
Cl        -2.03575       -1.75761        2.09395
C          3.53390        0.36999       -3.69825
C          2.88580        1.47273       -4.21923
C          3.10811       -0.17438       -2.49532
C          1.81761        2.01641       -3.55109
C          2.02729        0.34556       -1.82313
H         -3.25818        2.49875       -1.88966
H          0.76141        4.29037       -1.72413
H          0.20778       -0.97695       -2.37304
H         -1.06253       -1.57827       -3.42453
H         -0.25424       -0.06148       -3.81024
H          4.37912       -0.05492       -4.21459
H          3.21917        1.90498       -5.14883
H          3.65563       -1.00188       -2.07655
H          1.30399        2.86844       -3.96202
H         -1.87602        4.85530       -1.73633
P          1.71053       -0.31207       -0.16698
H         -2.57463        0.18138       -2.74332
P         -2.17175       -0.90054       -0.68422
H         -3.65117       -2.82254       -0.90089
C         -1.75826       -3.65179       -1.47514
C         -2.75703       -2.49911       -1.42901
C         -1.49532       -4.22183       -0.08009
H         -4.39802       -0.08920       -1.01436
C         -4.49521       -0.42777        1.10528
C         -3.72604       -0.01939       -0.15757
H         -3.80266       -0.35702        1.96082
C         -5.64971        0.54632        1.36002
H          3.51959       -1.89678       -0.29620
H          2.39177        0.72157        1.91904
C          3.46893        3.19843        1.36214
C          2.67321        2.25967        0.43728
C          2.77885        0.79998        0.89799
C          4.25758        0.37735        0.91608
C          5.09106        1.30255        1.82721
C          4.94985        2.77828        1.40731
H          3.04627        3.15494        2.37357
H          3.36459        4.24471        1.04233
H          3.07760        2.33453       -0.57963
H          1.62466        2.56287        0.35196
H          4.36368       -0.66675        1.23425
H          4.64812        0.41643       -0.10770
H          4.75242        1.18731        2.86444
H          6.14689        0.99731        1.82849
H          5.39751        2.91807        0.41527
H          5.52029        3.43255        2.08175
C          2.54889       -4.35045       -1.02874
C          1.83563       -2.98348       -1.04654
C          2.46197       -2.01896       -0.03709
C          2.39882       -2.62713        1.37280
C          3.13336       -3.98064        1.42007
C          2.54204       -4.96033        0.38740
H          3.58528       -4.22257       -1.36492
H          2.08781       -5.03739       -1.75226
H          0.78818       -3.11858       -0.76654
H          1.82645       -2.54873       -2.05481
H          2.79279       -1.92758        2.12112
H          1.34929       -2.78135        1.64775
H          4.19772       -3.82364        1.20565
H          3.09697       -4.40815        2.43186
H          1.51259       -5.20882        0.67282
H          3.08697       -5.91487        0.40150
H         -0.81662       -3.25257       -1.88565
C         -2.24502       -4.75639       -2.41818
H         -3.44865        1.03146       -0.08399
C         -5.01677       -1.86388        1.04635
H         -3.09213       -2.25022       -2.43804
H         -1.11642       -3.46491        0.60507
H         -0.77415       -5.03953       -0.11175
H         -2.41533       -4.61619        0.35202
H         -1.52599       -5.57496       -2.47926
H         -3.18904       -5.17329       -2.06582
H         -2.40906       -4.37853       -3.42869
H         -6.36560        0.51610        0.53802
H         -6.18914        0.29759        2.27529
H         -5.29663        1.57434        1.45039
H         -5.62380       -2.02137        0.15435
H         -4.20160       -2.58742        1.04078
H         -5.64140       -2.09235        1.91143
Fe        -0.97948        2.73421       -0.08567
C         -1.76578        2.00888        1.72143
C         -2.49779        3.16896        1.25261
C         -1.57827        4.28911        1.17318
C         -0.25964        3.80099        1.52778
C         -0.38022        2.39747        1.87116
H         -2.16648        1.02046        1.94721
H         -3.57308        3.21852        1.06834
H         -1.83262        5.31435        0.89544
H          0.64766        4.40575        1.59505
H          0.40607        1.75175        2.26234
Pd        -0.37779       -0.82414        0.88603
