87
-129.18815057
P         -1.67933       -0.36981       -0.27670
P          1.60082        0.22037        0.01197
C         -1.30741        0.93157       -1.46553
C          1.41339       -0.80309       -1.45876
C         -0.27419        0.79514       -2.38751
C          0.01857        1.87531       -3.24320
C         -0.73967        3.03073       -3.15996
C         -1.76610        3.14297       -2.24729
C         -2.04334        2.08988       -1.39846
C          2.15150       -1.95944       -1.53360
C          2.00894       -2.80962       -2.61216
C          1.11475       -2.49695       -3.61308
C          0.35726       -1.33936       -3.55784
C          0.51412       -0.46418       -2.46509
Cl         1.12656        0.55456        3.15502
Cl        -1.60693       -1.21389        2.87724
H         -2.34358        4.05105       -2.18948
H         -2.84018        2.17351       -0.67848
H          2.84383       -2.20100       -0.74453
H          2.58719       -3.71746       -2.66567
H         -0.51229        3.85252       -3.81762
H          0.99161       -3.16153       -4.45138
C         -1.73280       -4.50082       -2.16272
C         -0.94276       -4.27405       -1.04401
C         -0.96138       -3.01136       -0.46479
C         -1.72332       -2.00439       -1.01047
C         -2.49906       -2.23441       -2.12221
C         -2.50749       -3.49091       -2.69908
H         -1.73506       -5.47887       -2.61285
C         -0.11314       -5.35990       -0.45532
H         -0.36914       -2.81699        0.41332
H         -3.08270       -1.42847       -2.53882
H         -3.11310       -3.67918       -3.57038
C         -5.54685        0.57893        1.93590
C         -5.49971       -0.49092        1.06408
C         -4.32728       -0.78239        0.39285
C         -3.21389       -0.00061        0.59344
C         -3.25771        1.06357        1.46489
C         -4.42473        1.36577        2.15564
H         -6.45965        0.80900        2.45850
H         -6.37498       -1.10015        0.90852
H         -4.27422       -1.61988       -0.28306
H         -2.37550        1.66205        1.62255
C         -4.46817        2.52684        3.08555
C          5.13765       -1.19098        2.51272
C          4.02086       -1.99326        2.38833
C          2.94847       -1.56899        1.62687
C          3.00130       -0.34828        0.99434
C          4.11100        0.45459        1.12139
C          5.20159        0.04132        1.87727
H          5.97024       -1.51481        3.11378
H          3.98061       -2.94563        2.89111
H          2.06441       -2.18008        1.53502
H          4.12980        1.41655        0.63867
C          6.38847        0.92436        2.03933
C          1.89694        4.64153       -0.98671
C          2.74638        3.74030       -1.59828
C          2.66326        2.39509       -1.28974
C          1.73870        1.96744       -0.36610
C          0.90127        2.86394        0.25618
C          0.95713        4.21609       -0.05787
H          1.95705        5.68885       -1.22901
H          3.46863        4.08324       -2.32086
H          3.30496        1.67438       -1.77202
H          0.19228        2.51399        0.98714
C          0.04499        5.18252        0.61155
Pd        -0.15771       -0.22064        1.48331
C          1.12675        1.80391       -4.23581
C         -0.60699       -1.04910       -4.65528
H          0.73681        1.66270       -5.24453
H          1.71378        2.72336       -4.22938
H          1.80670        0.97970       -4.01781
H         -0.08599       -0.70832       -5.55079
H         -1.17628       -1.94173       -4.91829
H         -1.32196       -0.27811       -4.36619
H          0.80751       -4.96003       -0.02736
H         -0.65652       -5.87620        0.33719
H          0.16580       -6.09681       -1.20981
H         -5.27226        2.41991        3.81492
H         -3.53139        2.61957        3.63712
H         -4.63053        3.45629        2.53794
H          6.25882        1.59318        2.89126
H          7.29515        0.34048        2.20402
H          6.54608        1.53762        1.15089
H          0.47319        5.53151        1.55216
H         -0.13981        6.05285       -0.01971
H         -0.91975        4.72216        0.83074
