171
-217.84611517
P         -1.61744        0.38475       -0.31506
P          1.60616       -0.40839       -0.31805
C         -0.89068        1.30853       -1.67118
C          0.85825       -1.40811       -1.60792
C         -0.11428        0.66097       -2.62544
C          0.50762        1.43106       -3.62683
C          0.30850        2.80170       -3.64889
C         -0.48054        3.42171       -2.70298
C         -1.07473        2.66896       -1.70950
C          1.04495       -2.76826       -1.57228
C          0.43486       -3.57719       -2.51040
C         -0.37318       -3.01325       -3.47516
C         -0.57509       -1.64388       -3.52769
C          0.06376       -0.81702       -2.58390
Cl         1.61501        0.55784        2.82236
Cl        -1.52575       -0.32151        2.92207
C         -1.45467       -1.07372       -4.58484
C          1.36445        0.79849       -4.66700
H         -0.63165        4.48825       -2.73593
H         -1.68598        3.14487       -0.95998
H          1.67096       -3.19989       -0.80827
H          0.58817       -4.64363       -2.48550
H          0.78360        3.38542       -4.41926
H         -0.86127       -3.64058       -4.20191
C         -3.89256       -3.32340       -1.53985
C         -4.20046       -2.11998       -2.16179
C         -3.46905       -0.99576       -1.79553
C         -2.48659       -1.08891       -0.84029
C         -2.19803       -2.28498       -0.23244
C         -2.89090       -3.43626       -0.58437
H         -4.46576       -4.19649       -1.79160
H         -3.66761       -0.03471       -2.23874
H         -1.43704       -2.30695        0.52808
C         -4.38307        2.91362        2.24359
C         -3.02733        3.21933        2.22470
C         -2.20281        2.46103        1.40403
C         -2.71403        1.42259        0.66587
C         -4.05305        1.12365        0.71148
C         -4.91989        1.87297        1.49612
H         -5.04365        3.49038        2.86304
H         -1.14745        2.66822        1.35374
H         -4.41532        0.28896        0.13881
C          4.42698       -2.78137        2.32910
C          3.07293       -3.09435        2.34967
C          2.23043       -2.38560        1.50336
C          2.72361       -1.38754        0.69990
C          4.06150       -1.08031        0.70649
C          4.94536       -1.78073        1.51687
H          5.10106       -3.31994        2.96807
H          1.17563       -2.60057        1.48247
H          4.40948       -0.27663        0.08284
C          3.85467        3.22359       -1.79538
C          4.14937        1.98692       -2.35536
C          3.42586        0.88580       -1.91143
C          2.46375        1.03329       -0.94237
C          2.18871        2.26171       -0.39596
C          2.87382        3.39073       -0.82642
H          4.42230        4.08059       -2.10774
H          3.61520       -0.09881       -2.30405
H          1.44556        2.32661        0.37955
Pd         0.01233        0.02925        1.32804
C         -5.46237       -0.66653       -3.82606
C         -5.36351       -2.05387       -3.16217
C         -6.68003       -2.33493       -2.41521
C         -5.16493       -3.10983       -4.26658
H         -5.66326        0.10951       -3.08778
H         -4.54027       -0.41486       -4.34905
H         -6.27302       -0.64323       -4.55423
H         -6.67043       -3.32457       -1.95957
H         -6.83687       -1.60450       -1.62227
H         -7.53215       -2.28597       -3.09290
H         -4.22077       -2.95639       -4.78697
H         -5.16018       -4.11912       -3.85729
H         -5.96640       -3.05663       -5.00326
C         -1.36842       -4.72383        0.98730
C         -2.61357       -4.78956        0.08300
C         -2.36911       -5.85976       -0.99768
C         -3.82782       -5.18451        0.94138
H         -1.51696       -4.02633        1.81113
H         -1.15063       -5.70039        1.41943
H         -0.49537       -4.40719        0.41759
H         -1.54063       -5.57161       -1.64355
H         -2.12552       -6.82108       -0.54562
H         -3.24814       -6.00256       -1.62463
H         -3.65950       -6.13832        1.44107
H         -4.01943       -4.43124        1.70542
H         -4.72615       -5.27832        0.33199
C         -3.42203        4.87817        4.11393
C         -2.42642        4.36027        3.05761
C         -2.05314        5.51869        2.11767
C         -1.16777        3.85697        3.79363
H         -3.75077        4.07080        4.76811
H         -2.96071        5.64441        4.73689
H         -4.29939        5.32396        3.64613
H         -1.35186        5.18931        1.35301
H         -2.93773        5.90438        1.61117
H         -1.59299        6.33860        2.66881
H         -0.38392        3.56430        3.09724
H         -0.75817        4.63222        4.44075
H         -1.40456        2.99095        4.41130
C         -7.22536        2.81351        1.17580
C         -6.42129        1.56241        1.57546
C         -6.77594        1.15287        3.01619
C         -6.81303        0.41123        0.62765
H         -6.96320        3.13292        0.16729
H         -8.29624        2.61210        1.19827
H         -7.02980        3.64485        1.85191
H         -7.83414        0.90708        3.10331
H         -6.19939        0.27925        3.31978
H         -6.56013        1.95624        3.71963
H         -7.88343        0.21293        0.68062
H         -6.57344        0.65867       -0.40636
H         -6.29479       -0.51024        0.89261
C          3.51168       -4.65344        4.31290
C          2.49280       -4.19206        3.25253
C          2.10326       -5.39806        2.38144
C          1.24830       -3.65389        3.98773
H          4.38093       -5.11987        3.85009
H          3.85075       -3.81333        4.91880
H          3.06602       -5.38853        4.98300
H          1.38444       -5.11007        1.61633
H          2.97806       -5.80726        1.87639
H          1.65789       -6.18965        2.98377
H          0.85343       -4.39631        4.68089
H          1.49576       -2.75793        4.55660
H          0.45010       -3.39718        3.29343
C          6.82038       -0.96806        2.96517
C          6.44581       -1.45812        1.55493
C          6.81521       -0.35864        0.53922
C          7.25142       -2.72487        1.21170
H          6.24296       -0.08236        3.22960
H          6.62083       -1.73278        3.71497
H          7.87819       -0.71193        3.02173
H          6.56087       -0.66390       -0.47563
H          6.29535        0.57315        0.76150
H          7.88504       -0.15187        0.56398
H          8.32122       -2.51665        1.20583
H          7.07187       -3.51882        1.93552
H          6.97542       -3.10074        0.22662
C          5.37739        0.44085       -3.96042
C          5.29094        1.86383       -3.37489
C          6.62277        2.18708       -2.67350
C          5.06760        2.85515       -4.53316
H          4.44487        0.15983       -4.44882
H          6.17268        0.37589       -4.70286
H          5.59444       -0.29176       -3.18336
H          6.62178        3.20116       -2.27511
H          6.79735        1.50319       -1.84363
H          7.46028        2.09939       -3.36535
H          5.85337        2.76025       -5.28245
H          4.11287        2.67224       -5.02384
H          5.07004        3.88609       -4.18192
C          3.84343        5.21899        0.58045
C          2.61134        4.77935       -0.22940
C          1.38530        4.76567        0.70274
C          2.34499        5.78862       -1.36227
H          4.72892        5.27742       -0.05174
H          3.68611        6.19923        1.03005
H          4.05044        4.50871        1.38078
H          1.17621        5.76513        1.08375
H          0.50086        4.41814        0.16981
H          1.55121        4.11540        1.56116
H          1.50340        5.46638       -1.97417
H          2.11087        6.77374       -0.95907
H          3.21102        5.89551       -2.01398
H         -1.77914       -0.06332       -4.33242
H          0.82120        0.69052       -5.60674
H         -2.34909       -1.68290       -4.71441
H         -0.93616       -1.03359       -5.54370
H          1.70461       -0.19037       -4.35662
H          2.24942        1.40428       -4.86107
