72
-108.39157440
Cl        -2.11396       -0.11973        2.75506
Cl         1.02043       -0.62818        2.80423
P          1.16965       -1.01965       -0.27873
P         -2.20859        0.15764       -0.41223
C         -3.38544       -1.33991       -0.36083
C         -4.30795       -1.23975        0.85199
C         -4.23423       -1.43340       -1.63728
C         -3.12422        1.80246       -0.10982
C         -4.42649        1.83296       -0.90450
C         -1.40225        0.43719       -2.09302
C         -1.36245       -0.75965       -3.02441
C          1.17050        0.31066       -1.51226
C         -0.01024        1.03705       -1.97707
C          0.50683        2.16364       -2.76519
C          1.94050        2.02000       -2.95861
C          2.34881        0.92435       -2.10037
C         -2.53460       -2.59758       -0.22059
H         -3.73847       -1.16418        1.77601
H         -4.97891       -0.38638        0.78705
H         -4.49521       -0.45362       -2.03149
H         -5.16392       -1.97143       -1.44414
C         -3.40015        1.99665        1.37557
H         -4.23973        1.69976       -1.97033
H         -4.92657        2.79477       -0.77995
H         -2.04589        1.19242       -2.55848
H         -0.87411       -1.60596       -2.54967
H         -0.78552       -0.52869       -3.92225
H         -2.35129       -1.06654       -3.35783
H         -0.12258        2.85967       -3.32394
H          2.59310        2.67294       -3.53985
Pd        -0.53741       -0.39033        1.19128
H          3.37122        0.57480       -1.93984
C         -2.23039        2.94266       -0.59481
H         -5.12351        1.06397       -0.57845
H         -3.92907        2.93423        1.55347
H         -4.00943        1.19347        1.78479
H         -2.46853        2.03251        1.94025
H         -2.17750        2.98917       -1.68219
H         -2.60700        3.90782       -0.25141
H         -1.22080        2.82080       -0.21617
H         -4.93147       -2.13165        0.93235
H         -3.71969       -1.99007       -2.41876
H         -1.83217       -2.69377       -1.04614
H         -1.96917       -2.59205        0.71148
H         -3.16200       -3.49057       -0.21678
C          2.84797       -1.13610        0.38967
C          3.27763       -2.13007        1.23300
C          4.61494       -1.86597        1.52924
C          4.94785       -0.72011        0.84982
O          3.87246       -0.26208        0.14483
H          2.68379       -2.94929        1.60406
H          5.25940       -2.44648        2.16899
H          5.91676       -0.23637        0.86176
C          0.73720       -2.63894       -0.93730
C          0.50378       -3.72309       -0.12812
C          0.20141       -4.79903       -0.96428
C          0.26361       -4.32431       -2.25162
O          0.58829       -2.99752       -2.24924
H          0.53751       -3.72818        0.94987
H         -0.03447       -5.80531       -0.65886
H          0.08285       -4.90341       -3.14870
Fe         1.31083        2.17149       -0.91779
C          2.37754        3.80467       -0.38577
C          2.97943        2.61032        0.18013
C          1.98552        1.96318        1.01085
C          0.78360        2.76894        0.98764
C          1.02318        3.91339        0.12661
H          2.87419        4.52242       -1.04320
H          3.99707        2.25167        0.00947
H          2.12412        1.04956        1.59104
H         -0.10423        2.58762        1.59701
H          0.32632        4.73144       -0.07003
