45
-71.81290514
C          1.66765        0.58494        2.67314
P          1.35287        0.62111        0.87763
P         -1.30838        0.35751       -0.81894
C         -1.23490        0.06695       -2.61724
Cl         1.45535       -2.50880        1.40569
H          0.72812        0.65583        3.21374
H         -1.87724        0.77426       -3.13391
Cl        -1.03118       -2.88817       -0.78151
C          0.45268        2.10413        0.38876
C         -0.66398        1.99137       -0.40907
C         -1.29944        3.12445       -0.87561
C         -0.82441        4.37498       -0.52169
C          0.28530        4.48743        0.29304
C          0.92923        3.34935        0.74572
H         -2.16228        3.02440       -1.51459
H         -1.32168        5.26077       -0.88127
H          0.65617        5.46096        0.56856
H          1.80932        3.42398        1.36430
Pd         0.08305       -1.20494        0.19461
H         -1.56607       -0.94272       -2.84290
H          2.30457        1.41796        2.95639
H         -0.21448        0.19131       -2.96871
C         -5.56460       -0.19493        0.73314
C         -4.87817       -1.26217        0.18999
C         -3.58569       -1.08671       -0.26803
C         -2.98526        0.14927       -0.19103
C         -3.66596        1.21208        0.36076
C         -4.95821        1.04204        0.82323
H         -6.57196       -0.32883        1.09232
H         -5.34448       -2.23183        0.12951
H         -3.02500       -1.91925       -0.65818
H         -3.18354        2.17157        0.43762
H         -5.49050        1.87460        1.25324
C          5.22065        0.30756       -1.51708
C          4.48199        1.47361       -1.55391
C          3.30897        1.56978       -0.82753
C          2.88141        0.50404       -0.06745
C          3.61278       -0.66097       -0.03730
C          4.78648       -0.76233       -0.76020
H          6.13468        0.23102       -2.08308
H          4.81779        2.30765       -2.14804
H          2.72204        2.47256       -0.85483
H          3.24481       -1.49611        0.53460
H          5.35659       -1.67652       -0.73704
H          2.16128       -0.34438        2.94274
