59
-75.81272024
Cl         1.63273        0.53967        2.29641
P          1.60937       -0.04367       -0.85480
P         -1.64611       -0.05384       -0.79448
C          0.58017        0.40609       -2.31841
H          0.32306        1.46656       -2.26061
H          1.17865        0.25951       -3.22289
C         -0.65747       -0.44545       -2.30540
H         -0.39515       -1.50630       -2.28291
H         -1.28815       -0.27939       -3.18458
C          2.50230       -1.62146       -1.26157
H          2.29499       -1.77957       -2.32863
C          3.07244        1.07000       -0.61717
H          3.20526        1.16344        0.46758
C         -2.96604       -1.31648       -0.49083
H         -3.32985       -1.13270        0.52780
C         -2.77517        1.36214       -1.20910
H         -2.30378        1.90729       -2.03596
C          3.98896       -1.26655       -1.08043
H          4.32544       -1.59285       -0.08910
H          4.60641       -1.82993       -1.79630
C          4.23112        0.25927       -1.22274
H          4.32674        0.51932       -2.28605
H          5.18611        0.55203       -0.76014
C         -4.02836       -0.88523       -1.51502
H         -3.78188       -1.34645       -2.48255
H         -5.01469       -1.29082       -1.24034
C         -4.08104        0.66355       -1.66812
H         -4.91528        1.05593       -1.07024
H         -4.31983        0.93901       -2.70604
C          2.01687       -2.82782       -0.45990
H          2.51192       -3.73204       -0.84064
H          0.95022       -2.97753       -0.67163
C          2.89135        2.45059       -1.23637
H          3.85632        2.97642       -1.22757
H          2.63706        2.33421       -2.29782
C         -2.50149       -2.76317       -0.61992
H         -3.38210       -3.41571       -0.69891
H         -1.96889       -2.88687       -1.57077
C         -2.99966        2.29605       -0.02174
H         -3.85504        2.94994       -0.24296
H         -3.31126        1.69456        0.84252
C          2.23508       -2.72762        1.04378
H          1.82662       -1.80197        1.44733
H          3.29404       -2.74717        1.30449
H          1.76101       -3.55308        1.58002
C          1.84050        3.28506       -0.52371
H          2.09976        3.43460        0.52614
H          0.86976        2.79132       -0.54415
H          1.71822        4.27089       -0.97806
C         -1.63378       -3.20938        0.54626
H         -0.76197       -2.56578        0.65993
H         -1.27569       -4.23435        0.42597
H         -2.18394       -3.16121        1.48793
C         -1.79284        3.14750        0.33640
H         -2.01239        3.84664        1.14658
H         -0.95609        2.53312        0.66534
H         -1.45380        3.73325       -0.52006
Cl        -1.60520        0.12142        2.38258
Pd         0.00585        0.08001        0.82062
