58
-89.85779159
P          1.76087       -0.31081        0.59531
C          2.16329        1.39091        0.99528
C          2.72769        1.71114        2.20867
C          3.00294        3.03357        2.50730
C          2.71499        4.02245        1.58676
C          2.16230        3.69364        0.36460
C          1.89066        2.37092        0.06739
H          1.49128        2.09233       -0.89486
H          2.95157        0.92736        2.91455
C          3.16867       -1.18594       -0.08573
C          4.36668       -0.53109       -0.25727
C          5.44464       -1.20283       -0.80523
C          5.31169       -2.52529       -1.18052
C          4.10548       -3.17631       -1.01113
C          3.02900       -2.50196       -0.46239
H          2.07698       -2.99310       -0.33548
H          4.45105        0.50396        0.03233
C          0.99294       -1.26763        1.97298
C          0.16235       -0.43834        2.94541
C         -0.69621        0.63387        2.29127
P         -1.58763        0.07300        0.78734
C         -2.62334       -1.35940        1.09651
C         -3.11331       -1.62147        2.35601
C         -3.91455       -2.73007        2.56347
C         -4.22513       -3.56411        1.50726
C         -3.74312       -3.28959        0.24283
C         -2.94288       -2.18082        0.03997
H         -2.58139       -1.93101       -0.94427
H         -2.87663       -0.95596        3.17020
C         -2.55673        1.44376        0.15219
C         -3.90889        1.30097       -0.05744
C         -4.64081        2.35974       -0.56362
C         -4.01049        3.55294       -0.85784
C         -2.65206        3.68976       -0.64936
C         -1.92248        2.62914       -0.14319
H         -0.85920        2.71798        0.01459
H         -4.38403        0.36022        0.16873
Pd        -0.01446       -0.23533       -0.89675
Cl         1.51711       -0.31117       -2.53703
Cl        -1.73970       -0.30658       -2.33604
H         -1.43583        1.03948        2.98543
H         -0.08386        1.47780        1.97059
H         -0.47509       -1.11227        3.53656
H          0.82465        0.03645        3.68440
H          0.37235       -2.02381        1.48612
H          1.79181       -1.80662        2.48805
H          3.44077        3.29093        3.45775
H          1.94895        4.46362       -0.35855
H          6.38409       -0.69313       -0.94266
H          3.99990       -4.20608       -1.31058
H         -4.29738       -2.94072        3.54857
H         -3.99310       -3.93311       -0.58458
H         -5.69972        2.25133       -0.73155
H         -2.15935        4.61899       -0.88392
H          2.92860        5.05279        1.82017
H          6.14969       -3.04913       -1.61071
H         -4.84963       -4.42757        1.66911
H         -4.57939        4.37800       -1.25448
