171
-217.84541043
P         -1.59427        0.45076       -0.28931
P          1.59688       -0.38414       -0.35473
C         -0.88256        1.42677       -1.62048
C          0.84114       -1.30449       -1.70006
C         -0.10567        0.82662       -2.60526
C          0.52529        1.64450       -3.56236
C          0.32636        3.01441       -3.51970
C         -0.47055        3.58752       -2.55146
C         -1.06704        2.78783       -1.59685
C          1.01882       -2.66563       -1.74548
C          0.41150       -3.41279       -2.73548
C         -0.38501       -2.78732       -3.67111
C         -0.57780       -1.41612       -3.64274
C          0.05902       -0.65202       -2.64588
Cl         1.72778        0.44234        2.75307
Cl        -1.51393       -0.25749        2.91700
C         -1.43604       -0.77455       -4.67639
C          1.40275        1.06759       -4.61786
H         -0.62262        4.65432       -2.53415
H         -1.68062        3.22882       -0.82840
H          1.63757       -3.14679       -1.00565
H          0.55912       -4.47959       -2.77565
H          0.80861        3.63460       -4.25643
H         -0.86841       -3.36674       -4.43956
C         -3.85289       -3.27641       -1.48794
C         -2.88776       -3.36680       -0.49208
C         -2.18105       -2.21650       -0.16965
C         -2.43326       -1.03683       -0.82401
C         -3.39221       -0.96096       -1.80388
C         -4.12772       -2.08757       -2.15354
H         -4.42587       -4.14774       -1.74326
H         -1.44628       -2.23281        0.61709
H         -3.57425       -0.00957       -2.27423
C         -4.45692        2.85440        2.28490
C         -4.95015        1.80498        1.51795
C         -4.05189        1.10214        0.72787
C         -2.72270        1.44158        0.70184
C         -2.25177        2.48030        1.46519
C         -3.11051        3.20292        2.28302
H         -5.13586        3.40774        2.90443
H         -4.39193        0.26982        0.13677
H         -1.20144        2.71617        1.43737
C          4.30932       -3.02405        2.14613
C          2.94148       -3.27032        2.15602
C          2.13569       -2.47220        1.35465
C          2.67701       -1.45309        0.61105
C          4.02715       -1.20839        0.63443
C          4.87538       -1.99875        1.39867
H          4.95722       -3.63995        2.74071
H          1.07226       -2.63313        1.31729
H          4.41280       -0.38615        0.05917
C          3.92181        3.26539       -1.66202
C          2.91773        3.41392       -0.71387
C          2.21266        2.27934       -0.33400
C          2.49231        1.06397       -0.90669
C          3.47487        0.93601       -1.85749
C          4.21823        2.04275       -2.25164
H          4.50517        4.12546       -1.93434
H          1.44564        2.33149        0.41881
H          3.66196       -0.03765       -2.27755
Pd         0.03598        0.05748        1.32889
C         -3.52807       -5.81078       -0.16917
C         -2.60485       -4.66241        0.28039
C         -2.83155       -4.41448        1.78410
C         -1.14608       -5.08542        0.03802
H         -3.38648       -6.03737       -1.22577
H         -3.31587       -6.71966        0.39379
H         -4.57570       -5.55838       -0.00608
H         -2.64317       -5.31907        2.36196
H         -2.17273       -3.63447        2.16294
H         -3.85834       -4.10097        1.97122
H         -0.90214       -5.98748        0.59878
H         -0.97644       -5.28854       -1.01869
H         -0.45490       -4.30115        0.34179
C         -6.59772       -2.33332       -2.46783
C         -5.26622       -2.03611       -3.18227
C         -5.02114       -3.08896       -4.27946
C         -5.37080       -0.64991       -3.84803
H         -6.77925       -1.60828       -1.67459
H         -7.43398       -2.28785       -3.16523
H         -6.59120       -3.32536       -2.01757
H         -4.06375       -2.92114       -4.77098
H         -5.01228       -4.09757       -3.86840
H         -5.80151       -3.04815       -5.03920
H         -4.44496       -0.38682       -4.35795
H         -6.17080       -0.63603       -4.58812
H         -5.59121        0.12365       -3.11274
C         -6.52987       -0.08045        1.99626
C         -6.42590        1.38214        1.52326
C         -6.99320        1.50486        0.09666
C         -7.26930        2.26278        2.46457
H         -7.56929       -0.40588        2.03370
H         -5.99469       -0.75317        1.32690
H         -6.10357       -0.19312        2.99283
H         -8.04545        1.22241        0.06915
H         -6.90837        2.52953       -0.26459
H         -6.45724        0.86024       -0.59892
H         -8.31285        1.94818        2.45634
H         -6.91219        2.19246        3.49184
H         -7.23771        3.30792        2.15726
C         -2.11841        5.49769        2.21022
C         -2.54883        4.34815        3.13735
C         -1.33304        3.84217        3.93977
C         -3.59486        4.88173        4.13518
H         -1.69293        6.32310        2.78070
H         -1.37054        5.16241        1.49362
H         -2.97032        5.87818        1.64699
H         -1.60905        2.98739        4.55680
H         -0.52071        3.53100        3.28484
H         -0.94634        4.62204        4.59540
H         -3.16579        5.66103        4.76494
H         -4.45004        5.31493        3.61703
H         -3.95198        4.08603        4.78876
C          3.22635       -4.78911        4.17104
C          2.32700       -4.41405        2.97605
C          2.16040       -5.64076        2.06453
C          0.95122       -3.99355        3.53456
H          2.73985       -5.53160        4.80353
H          4.17212       -5.21684        3.84053
H          3.43942       -3.91418        4.78502
H          1.53681       -5.40261        1.20389
H          3.12689       -5.97751        1.68999
H          1.69698       -6.46839        2.60123
H          0.55117       -4.75783        4.20055
H          1.03085       -3.06363        4.09732
H          0.22301       -3.84563        2.73948
C          7.13323       -3.02750        1.01733
C          6.38954       -1.75160        1.45347
C          6.78799       -1.38207        2.89365
C          6.81048       -0.60075        0.51787
H          6.83905       -3.31814        0.00896
H          8.21179       -2.87081        1.02224
H          6.91598       -3.86172        1.68318
H          6.55304       -2.18820        3.58773
H          7.85679       -1.18082        2.96404
H          6.25335       -0.49132        3.22307
H          7.88846       -0.44462        0.55638
H          6.54526       -0.82129       -0.51596
H          6.33234        0.33526        0.80622
C          1.39760        4.75806        0.81462
C          2.64869        4.78709       -0.08439
C          2.42061        5.82997       -1.19495
C          3.86179        5.19361        0.77010
H          1.18877        5.74767        1.22067
H          0.52342        4.43772        0.24884
H          1.53278        4.08006        1.65692
H          1.59461        5.53123       -1.83920
H          2.18157        6.80493       -0.77052
H          3.30528        5.94900       -1.81894
H          3.70015        6.16243        1.24235
H          4.04140        4.45974        1.55562
H          4.76448        5.26172        0.16373
C          5.20663        2.97438       -4.37273
C          5.38211        1.93637       -3.24752
C          5.45552        0.53531       -3.88561
C          6.70142        2.20630       -2.50164
H          6.00908        2.89167       -5.10561
H          4.26127        2.82830       -4.89320
H          5.21993        3.99143       -3.98341
H          5.64282       -0.23062       -3.13338
H          4.52840        0.29109       -4.40347
H          6.26519        0.48378       -4.61340
H          6.70894        3.20443       -2.06482
H          6.84166        1.48824       -1.69434
H          7.55458        2.12826       -3.17528
H         -0.87892       -0.61421       -5.60032
H          1.67998        0.03758       -4.38985
H         -1.81326        0.19108       -4.33688
H         -2.29659       -1.40102       -4.91179
H          2.32455        1.64204       -4.70937
H          0.90451        1.07782       -5.58824
