64
-97.20829922
Cl        -1.47576       -1.55761       -2.55692
Cl         1.53276       -2.42192       -2.43922
P          1.98470       -0.56152        0.24019
C          2.41832       -2.14295        1.08945
C          3.65613       -0.07623       -0.39084
P         -1.25157       -0.10170        0.37964
C          1.29530        0.68609        1.38277
C         -0.13995        0.87680        1.46398
C         -0.39548        1.95651        2.40678
C          0.89121        2.44432        2.87556
C          1.93931        1.63807        2.27246
H         -1.37251        2.36037        2.67615
H          1.04299        3.25118        3.59624
Pd         0.22850       -1.11440       -1.15853
H          3.01497        1.74051        2.42916
C         -4.72843        2.51214       -0.96368
C         -4.44894        2.36115        0.38019
C         -3.40520        1.54558        0.77993
C         -2.64550        0.89234       -0.16404
C         -2.93908        1.02151       -1.50230
C         -3.97798        1.83844       -1.90662
H         -5.54020        3.14854       -1.27647
H         -5.04194        2.87729        1.11730
H         -3.18498        1.40783        1.82620
H         -2.36749        0.46301       -2.22369
H         -4.20522        1.94236       -2.95495
C         -2.81780       -3.79542        2.50973
C         -2.38749       -2.70679        3.24359
C         -1.91426       -1.58106        2.59329
C         -1.87383       -1.55608        1.21839
C         -2.30449       -2.63557        0.48345
C         -2.77810       -3.76209        1.12934
H         -3.18610       -4.67300        3.01563
H         -2.41917       -2.73344        4.32044
H         -1.57111       -0.72319        3.14948
H         -2.25699       -2.58912       -0.59270
H         -3.11321       -4.61097        0.55632
C          3.64373        0.09288       -1.89566
H          3.90928        0.86522        0.11337
C          4.57630       -1.21723        0.08945
H          5.56048       -0.81976        0.37921
C          3.94372       -2.02952        1.25230
H          4.77159       -1.89066       -0.75612
C          1.65885       -2.29563        2.38917
H          2.16726       -2.95136        0.38980
H          4.16099       -1.53418        2.20886
H          4.39642       -3.03011        1.32741
H          1.85246       -1.45005        3.05194
H          0.58192       -2.33620        2.21551
H          1.94991       -3.20644        2.91732
H          2.91227        0.83703       -2.21445
H          4.62328        0.39729       -2.27132
H          3.38079       -0.84608       -2.38527
Fe         0.78518        2.53383        0.83676
C          1.91258        3.07084       -0.78751
C          1.54616        4.24527       -0.01451
C          0.09685        4.30524        0.03945
C         -0.41917        3.16734       -0.69916
C          0.69754        2.42181       -1.24628
H          2.93384        2.78399       -1.04580
H          2.23733        4.96093        0.43659
H         -0.49900        5.07094        0.54141
H         -1.47458        2.95176       -0.86878
H          0.62940        1.54747       -1.89559
