171
-217.83538307
P         -1.50356        0.16512       -0.22275
P          1.69555       -0.72521        0.21620
C         -0.66699        0.66348       -1.74479
C          0.86588       -1.97072       -0.80127
C          0.04042       -0.29940       -2.45379
C          0.70305        0.06745       -3.64096
C          0.60132        1.37309       -4.09158
C         -0.09882        2.31917       -3.37270
C         -0.72549        1.96000       -2.19606
C          0.94577       -3.25158       -0.30773
C          0.28992       -4.28661       -0.94562
C         -0.47078       -4.02238       -2.06423
C         -0.58001       -2.73708       -2.56745
C          0.11775       -1.68904       -1.93850
Cl         1.15178       -0.48409        3.41752
Cl        -1.92729       -1.08168        2.89680
C         -1.45208       -2.49834       -3.74970
C          1.49877       -0.92747       -4.41232
H         -0.15049        3.33717       -3.72299
H         -1.24783        2.70273       -1.62007
H          1.51907       -3.43671        0.58885
H          0.36227       -5.29107       -0.56175
H          1.08327        1.64573       -5.01496
H         -1.00080       -4.82078       -2.55591
C         -4.67940       -2.88359       -1.30852
C         -3.85162       -3.14512       -0.22271
C         -2.88761       -2.20124        0.10123
C         -2.75458       -1.05242       -0.63583
C         -3.57897       -0.81077       -1.70699
C         -4.56396       -1.72286       -2.06551
H         -5.44071       -3.59532       -1.56287
H         -2.25223       -2.35191        0.95541
H         -3.45309        0.09843       -2.26913
C         -3.74235        3.73889        1.51243
C         -3.86056        3.44772        0.15991
C         -3.18491        2.33614       -0.32866
C         -2.38367        1.57781        0.49146
C         -2.29221        1.88193        1.82863
C         -2.96966        2.96506        2.36804
H         -4.27653        4.58419        1.90348
H         -3.28108        2.05652       -1.36257
H         -1.71183        1.25491        2.47868
C          5.80009       -2.36372        1.20239
C          5.32997       -2.43501       -0.10302
C          4.05602       -1.94344       -0.36003
C          3.29908       -1.40556        0.65199
C          3.77876       -1.34776        1.93516
C          5.04427       -1.83028        2.23905
H          6.78605       -2.73274        1.41780
H          3.63967       -1.97865       -1.35261
H          3.14617       -0.93199        2.69712
C          2.68572        3.46210       -1.21779
C          1.77166        3.32142       -0.18044
C          1.43761        2.03373        0.21877
C          2.00189        0.94060       -0.39770
C          2.91446        1.10159       -1.41140
C          3.27502        2.37169       -1.84435
H          2.97216        4.44671       -1.53574
H          0.75218        1.88731        1.03466
H          3.35823        0.22541       -1.85013
Pd        -0.17338       -0.53467        1.60626
C         -5.08858       -5.34425        0.12367
C         -3.99206       -4.39955        0.65125
C         -4.35766       -3.97354        2.08547
C         -2.65619       -5.16464        0.66547
H         -5.16361       -6.23519        0.74705
H         -6.06324       -4.85671        0.12878
H         -4.86886       -5.67004       -0.89293
H         -4.48045       -4.84217        2.73196
H         -3.58374       -3.34149        2.51946
H         -5.29068       -3.41061        2.09361
H         -2.72831       -6.06523        1.27483
H         -2.37431       -5.46229       -0.34395
H         -1.85257       -4.55185        1.07205
C         -6.42277       -0.21011       -2.76734
C         -5.52975       -1.38264       -3.21094
C         -6.42848       -2.58078       -3.57331
C         -4.73943       -0.97799       -4.47060
H         -5.82400        0.66783       -2.52874
H         -7.12697        0.06554       -3.55210
H         -6.99338       -0.47535       -1.87753
H         -5.82961       -3.44750       -3.85291
H         -7.07197       -2.85856       -2.73891
H         -7.07480       -2.33779       -4.41667
H         -5.41556       -0.73088       -5.28893
H         -4.11199       -0.10652       -4.28909
H         -4.09844       -1.79295       -4.80411
C         -4.24042        5.80204       -0.62471
C         -4.71966        4.34265       -0.74456
C         -6.19076        4.23829       -0.30558
C         -4.61540        3.92424       -2.22473
H         -4.35002        6.17616        0.39229
H         -3.18941        5.88533       -0.90099
H         -4.81431        6.45559       -1.28148
H         -6.31847        4.56680        0.72534
H         -6.83130        4.85509       -0.93573
H         -6.54004        3.20809       -0.37393
H         -3.58321        3.96743       -2.57225
H         -4.98895        2.91228       -2.37549
H         -5.20528        4.58802       -2.85669
C         -3.66266        4.48815        4.28646
C         -2.85272        3.24484        3.87293
C         -1.37500        3.48300        4.23354
C         -3.38488        2.02882        4.65452
H         -4.72264        4.35557        4.07064
H         -3.56500        4.67484        5.35584
H         -3.31065        5.37693        3.76292
H         -0.76378        2.61262        3.99772
H         -0.97870        4.33399        3.68074
H         -1.26143        3.68997        5.29739
H         -4.42298        1.82693        4.39178
H         -2.80551        1.13265        4.43559
H         -3.33513        2.20291        5.72910
C          7.48115       -2.15288       -1.35499
C          6.21686       -3.01939       -1.21122
C          5.48582       -3.04703       -2.56859
C          6.61174       -4.46149       -0.84302
H          7.21657       -1.12388       -1.59812
H          8.05837       -2.14003       -0.43113
H          8.12648       -2.53208       -2.14718
H          4.58012       -3.65091       -2.51378
H          5.21216       -2.04200       -2.88896
H          6.12254       -3.47611       -3.34213
H          7.22230       -4.91060       -1.62619
H          7.18409       -4.49260        0.08326
H          5.72477       -5.08059       -0.70962
C          6.89920       -0.93227        3.66735
C          5.61726       -1.78497        3.66268
C          5.94261       -3.21691        4.12575
C          4.61587       -1.16660        4.65845
H          7.31948       -0.86509        4.67068
H          7.66064       -1.35804        3.01492
H          6.68913        0.07939        3.32063
H          5.04839       -3.83958        4.10587
H          6.68849       -3.68192        3.48224
H          6.33282       -3.21867        5.14336
H          5.03415       -1.14370        5.66455
H          4.36811       -0.14227        4.38112
H          3.69332       -1.74535        4.69796
C          1.74392        5.86183        0.03245
C          1.18992        4.52879        0.57140
C          1.56156        4.41560        2.06177
C         -0.33959        4.54599        0.41835
H          2.82794        5.90700        0.13565
H          1.48893        5.99635       -1.01861
H          1.32504        6.70428        0.58281
H          2.64376        4.38639        2.18662
H          1.17971        5.26646        2.62555
H          1.15161        3.50893        2.50440
H         -0.78108        5.37309        0.97401
H         -0.62226        4.65626       -0.62787
H         -0.77745        3.62327        0.79154
C          4.83816        1.26261       -3.51822
C          4.34813        2.59544       -2.91965
C          5.55217        3.31400       -2.28352
C          3.77192        3.45939       -4.05624
H          5.30065        0.63635       -2.75563
H          4.01428        0.70958       -3.96670
H          5.58204        1.43685       -4.29549
H          5.26567        4.28588       -1.88319
H          5.96359        2.72335       -1.46511
H          6.34320        3.47389       -3.01600
H          2.90587        2.97671       -4.50591
H          3.45877        4.43763       -3.69385
H          4.51314        3.61715       -4.83952
H         -2.42986       -2.95904       -3.60120
H          1.99786       -1.63260       -3.74558
H         -1.01436       -2.92718       -4.65221
H         -1.61119       -1.43323       -3.92215
H          2.26766       -0.43990       -5.01310
H          0.86138       -1.49592       -5.09030
