58
-89.85872425
P          1.53115        0.40087        0.78709
C          2.26017        1.90703        0.13738
C          3.61600        1.98208       -0.08386
C          4.16427        3.14138       -0.60185
C          3.34807        4.21590       -0.89633
C          1.98704        4.13406       -0.67619
C          1.44132        2.97330       -0.15809
H          0.37894        2.89123        0.00919
H          4.23805        1.13140        0.14264
C          2.79291       -0.83519        1.10462
C          3.32902       -0.99332        2.36263
C          4.30459       -1.95051        2.57730
C          4.74150       -2.73723        1.52953
C          4.21157       -2.56515        0.26622
C          3.23702       -1.60762        0.05614
H          2.83341       -1.43499       -0.92832
H          2.99156       -0.36366        3.16978
C          0.55859        0.81178        2.28824
C         -0.07978       -0.39660        2.95713
C         -0.71115       -1.38985        1.99007
P         -1.64473       -0.61621        0.60145
C         -2.83777       -1.77138       -0.07404
C         -2.42773       -3.03607       -0.42869
C         -3.33815       -3.92533       -0.97181
C         -4.65091       -3.53870       -1.15785
C         -5.05567       -2.26631       -0.80493
C         -4.14325       -1.37937       -0.26251
H         -4.44102       -0.37972        0.01004
H         -1.39624       -3.31921       -0.28903
C         -2.40747        0.95447        1.01439
C         -3.06665        1.11235        2.21191
C         -3.62967        2.33605        2.52723
C         -3.53115        3.38923        1.63894
C         -2.88011        3.22124        0.43264
C         -2.32056        1.99647        0.11846
H         -1.83785        1.83956       -0.83285
H         -3.14001        0.27892        2.89230
Pd         0.05789       -0.17512       -0.91611
Cl         1.75466       -0.02510       -2.38054
Cl        -1.42891       -0.62149       -2.53991
H          0.05611       -2.00596        1.51513
H         -1.38728       -2.07646        2.50521
H          0.66902       -0.92004        3.56994
H         -0.83556       -0.04973        3.67746
H          1.21125        1.35770        2.97339
H         -0.20254        1.52100        1.95954
H          5.22546        3.20332       -0.77875
H          1.34969        4.97067       -0.91097
H          4.72436       -2.07994        3.56136
H          4.55911       -3.17021       -0.55497
H         -3.02087       -4.91581       -1.25381
H         -6.07861       -1.96265       -0.95529
H         -4.14392        2.46642        3.46523
H         -2.81320        4.03949       -0.26544
H          3.77381        5.11902       -1.30232
H          5.50181       -3.48265        1.69691
H         -5.35991       -4.22996       -1.58352
H         -3.96919        4.34280        1.88500
