105
-153.07363835
Cl        -0.04272        1.84901        3.05641
Pd        -0.61818        1.10994        0.99924
P         -1.31007        0.52222       -1.15144
N         -1.05465       -1.06862       -1.84683
C          0.02033       -1.93351       -1.60865
C          0.31345       -2.44052       -0.31478
C          1.36469       -3.36528       -0.15473
C          1.63177       -3.93534        1.21795
C          2.53220       -5.18028        1.22681
C          3.73052       -4.99624        0.29141
C          3.26101       -4.74750       -1.14990
C          2.11729       -3.77009       -1.26032
C          1.79516       -3.28040       -2.51975
C          0.76611       -2.39266       -2.69461
H          0.52992       -2.02600       -3.67820
H          2.37111       -3.60843       -3.36855
H          4.09540       -4.38499       -1.76391
H          4.32919       -4.14276        0.63325
H          2.86740       -5.41309        2.24742
H          2.08572       -3.15099        1.83430
C         -0.60588       -2.17981        0.81727
C         -0.12002       -1.58074        2.01292
C         -0.98754       -1.48032        3.10575
C         -2.28697       -1.90851        3.01838
C         -2.78109       -2.49161        1.85783
C         -4.21500       -2.96919        1.86096
C         -4.71027       -3.55214        0.52532
C         -3.59719       -4.31801       -0.19533
C         -2.39970       -3.39629       -0.46485
C         -1.93165       -2.65217        0.76124
H         -1.56332       -3.97568       -0.87554
H         -3.96805       -4.76437       -1.12891
H         -5.06359       -2.74142       -0.12334
H         -4.85786       -2.13529        2.17048
H         -2.94494       -1.79691        3.86358
H         -0.63242       -1.01301        4.00743
N          1.15740       -1.00755        2.10135
P          1.56412        0.20755        0.88708
C          2.67075       -0.35871       -0.39561
C          3.74662       -1.14962       -0.07333
C          4.64270       -1.51884       -1.06073
C          4.46420       -1.09403       -2.37100
C          3.38913       -0.26584       -2.66516
C          2.49704        0.10337       -1.67554
H          1.66313        0.74778       -1.89210
H          3.25235        0.08591       -3.67336
C          5.42836       -1.48842       -3.43446
H          5.48710       -2.14121       -0.81871
H          3.88123       -1.46946        0.94772
C          2.39611        1.63202        1.59837
C          3.17614        1.50207        2.72189
C          3.81760        2.61167        3.24190
C          3.69090        3.85268        2.63203
C          2.90173        3.96073        1.49479
C          2.26152        2.85046        0.97555
H          1.65267        2.92962        0.08843
H          2.78827        4.92017        1.01973
C          4.35572        5.05232        3.21197
H          4.42032        2.52042        4.12935
H          3.28562        0.53587        3.18668
H          1.35782       -0.55990        2.98624
H         -1.37069       -0.97089       -2.80312
C         -0.51037        1.80079       -2.12425
C         -0.40619        3.07171       -1.60837
C          0.24981        4.05461       -2.32591
C          0.79207        3.77534       -3.57290
C          0.66635        2.49028       -4.08286
C          0.01086        1.50862       -3.36259
H         -0.07141        0.50791       -3.75243
H          1.09269        2.26096       -5.04456
C          1.53053        4.82305       -4.33074
H          0.34580        5.04690       -1.91920
H         -0.84499        3.29261       -0.64805
C         -3.08298        0.78521       -1.22290
C         -3.61321        1.78328       -2.00582
C         -4.98279        1.97031       -2.04751
C         -5.83004        1.15592       -1.30825
C         -5.27454        0.15986       -0.51717
C         -3.90469       -0.02759       -0.48222
H         -3.46426       -0.78417        0.14549
H         -5.92135       -0.45843        0.08123
C         -7.30233        1.37772       -1.32398
H         -5.40229        2.75645       -2.65178
H         -2.95506        2.41629       -2.57834
Cl        -2.69973        1.83770        1.46336
H          2.95290       -5.69583       -1.60616
H          1.95026       -6.05214        0.90251
H          4.40165       -5.86542        0.34097
H          0.67164       -4.16485        1.69716
H         -3.27342       -5.16104        0.42788
H         -2.66192       -2.66782       -1.24031
H         -4.32070       -3.72428        2.64920
H         -5.58515       -4.19836        0.68363
H          5.89106       -2.45045       -3.20953
H          4.93086       -1.57950       -4.40111
H          6.22239       -0.74692       -3.53221
H          3.72616        5.51185        3.97507
H          5.30800        4.78918        3.67449
H          4.55630        5.80181        2.44514
H          2.59140        4.80844       -4.07706
H          1.43941        4.66865       -5.40681
H          1.14422        5.81811       -4.10561
H         -7.62828        1.79294       -2.27866
H         -7.84282        0.44306       -1.16778
H         -7.59682        2.07256       -0.53636
