115
-277.93757083
P         -1.64356        0.77345        0.31117
P          1.93619        0.09170       -0.04790
C         -2.59575        2.29131        0.19683
C         -3.86389        2.30976        0.73892
H         -4.33289        1.38459        1.03658
C         -4.45941        3.52272        1.02889
H         -5.38959        3.55685        1.57266
C         -3.79057        4.70974        0.76493
C         -2.58068        4.67235        0.09138
H         -2.06650        5.60290       -0.09308
C         -1.97490        3.46297       -0.17957
H         -0.98764        3.43937       -0.61133
C         -2.65055       -0.56000       -0.36144
C         -2.97340       -1.65165        0.41217
H         -2.69474       -1.67832        1.45242
C         -3.61309       -2.73117       -0.15914
H         -3.80870       -3.62176        0.41699
C         -3.94917       -2.71340       -1.50106
C         -3.65239       -1.59885       -2.26044
H         -3.88790       -1.61338       -3.31335
C         -3.00106       -0.52623       -1.69045
H         -2.71876        0.31979       -2.29495
C         -1.24233        0.48021        2.07355
C         -0.54494       -0.69929        2.23797
H         -0.27451       -1.27069        1.37039
C         -0.01884       -1.07898        3.47028
C         -0.40725       -0.35115        4.58769
H         -0.04992       -0.64434        5.56066
C         -1.10663        0.82942        4.43891
H         -1.28928        1.44497        5.30351
C         -1.42924        1.32775        3.17589
C          1.85304        0.83998        1.62076
C          1.19552        2.05833        1.62717
H          0.77139        2.43456        0.71180
C          0.92263        2.73424        2.81696
C          1.54462        2.27781        3.97269
H          1.38290        2.80104        4.90030
C          2.22350        1.07618        3.97304
H          2.59125        0.67831        4.90357
C          2.28789        0.28194        2.82868
C         -1.62388        2.82388        3.06680
H         -2.18454        3.17629        3.94095
H         -2.29175        3.04777        2.23922
C         -0.28303        3.63305        2.91886
H         -0.32392        4.29246        2.04583
H         -0.15333        4.31333        3.76807
C          1.20487       -1.95566        3.51187
H          1.02155       -2.85148        2.91005
H          1.33806       -2.33142        4.53223
C          2.49769       -1.20072        3.02453
H          3.31885       -1.35535        3.73309
H          2.85909       -1.62533        2.09079
C          1.73151       -1.70278       -0.17673
C          2.81805       -2.50557        0.09525
C          0.49696       -2.27042       -0.41452
C          2.63315       -3.85673        0.30894
C          0.31351       -3.62379       -0.22125
C          1.36656       -4.41056        0.22188
C          3.45230        0.60521       -0.86806
C          4.03488       -0.16407       -1.84854
C          4.02600        1.79557       -0.48733
C          5.20579        0.25682       -2.44645
H          3.56768       -1.08634       -2.15430
C          5.19625        2.21498       -1.08425
H          3.56354        2.38972        0.28433
C          5.79227        1.44868       -2.06779
H          5.68700       -0.33530       -3.20891
H          5.66964        3.13633       -0.78536
Pd         0.09372        0.89670       -1.26271
Cl        -1.37830        1.93735       -2.61636
Cl         1.54648        0.85194       -2.98373
H         -0.65975       -4.07343       -0.34988
H         -0.34484       -1.65228       -0.67524
H          3.44333       -4.47857        0.65746
H          3.79500       -2.06480        0.22005
C         -5.65621        6.08963        1.79178
C         -4.13040        5.97842        1.50738
C         -3.26968        5.95282        2.81178
F         -6.29966        5.93084        0.62577
F         -6.02813        5.12768        2.64741
F         -5.91998        7.30145        2.30453
F         -3.76389        7.04395        0.79109
F         -3.52253        4.82115        3.48261
F         -1.98077        5.95797        2.44365
F         -3.54844        7.02758        3.56126
C         -3.17228       -4.71259       -2.70696
C         -4.43598       -3.95509       -2.20134
C         -5.32163       -4.82256       -1.25981
F         -3.51085       -5.94206       -3.12305
F         -2.65911       -4.00012       -3.72080
F         -2.27794       -4.76990       -1.70888
F         -5.17401       -3.62360       -3.26416
F         -6.24893       -4.01831       -0.71888
F         -5.91211       -5.79041       -1.97848
F         -4.56199       -5.35300       -0.29101
C          7.11356        3.36963       -3.02108
C          7.11595        1.85301       -2.66563
C          8.24257        1.48228       -1.65873
F          6.02522        3.60929       -3.76769
F          7.05977        4.09563       -1.89579
F          8.22391        3.66129       -3.71590
F          7.33655        1.17267       -3.79388
F          8.21093        0.15123       -1.49464
F          9.42976        1.86143       -2.15460
F          8.00277        2.08748       -0.48620
C          0.82906       -5.30929        2.43481
C          1.11303       -5.70705        0.95249
C         -0.05888       -6.51256        0.32495
F          0.55757       -6.40454        3.15699
F          1.92437       -4.69561        2.90240
F         -0.19547       -4.44588        2.46615
F          2.20584       -6.47376        0.92800
F         -1.21130       -5.85769        0.52942
F          0.18085       -6.62549       -0.99058
F         -0.10545       -7.72875        0.89182
