171
-217.83645006
P         -1.50092        0.17136       -0.21065
P          1.69205       -0.67851        0.24910
C         -0.69792        0.73068       -1.72342
C          0.89002       -1.89905       -0.81339
C          0.07062       -0.18244       -2.43491
C          0.72994        0.24272       -3.60458
C          0.54551        1.54321       -4.04468
C         -0.23936        2.42945       -3.33695
C         -0.85379        2.02035       -2.16988
C          0.95909       -3.19166       -0.34878
C          0.32480       -4.21216       -1.02983
C         -0.39863       -3.92178       -2.16608
C         -0.49585       -2.62434       -2.64010
C          0.17317       -1.58774       -1.96264
Cl         1.11038       -0.55928        3.45087
Cl        -1.95741       -1.15292        2.88382
C         -1.31874       -2.36225       -3.85132
C          1.60350       -0.68461       -4.37512
H         -0.36774        3.43910       -3.69126
H         -1.44849        2.71402       -1.60127
H          1.50611       -3.39751        0.55966
H          0.38659       -5.22534       -0.66765
H          1.02305        1.85897       -4.95653
H         -0.90875       -4.70926       -2.69501
C         -4.66332       -2.83897       -1.43759
C         -3.87684       -3.11720       -0.32538
C         -2.92487       -2.17986        0.04870
C         -2.75488       -1.02645       -0.67265
C         -3.53222       -0.77251       -1.77670
C         -4.51727       -1.66847       -2.17405
H         -5.41386       -3.54697       -1.73139
H         -2.32466       -2.34162        0.92587
H         -3.36332        0.12876       -2.34125
C         -3.72831        3.64529        1.74437
C         -3.97897        3.32389        0.41657
C         -3.29672        2.24489       -0.13143
C         -2.35881        1.55316        0.59664
C         -2.12438        1.89831        1.90781
C         -2.80996        2.94274        2.51169
H         -4.27096        4.44948        2.20422
H         -3.50834        1.93615       -1.14005
H         -1.41369        1.33846        2.48351
C          5.76189       -2.37561        1.29978
C          5.29049       -2.48103       -0.00260
C          4.02681       -1.97275       -0.27669
C          3.28070       -1.38242        0.71454
C          3.76330       -1.29018        1.99487
C          5.01815       -1.78919        2.31612
H          6.73753       -2.76287        1.52966
H          3.60947       -2.03711       -1.26740
H          3.13929       -0.84076        2.74431
C          2.73419        3.42595       -1.36450
C          1.72333        3.34244       -0.41506
C          1.39201        2.08380        0.07453
C          2.03599        0.96414       -0.40004
C          3.03261        1.06965       -1.33913
C          3.40959        2.30957       -1.83735
H          3.01692        4.39380       -1.73554
H          0.62522        1.96927        0.81925
H          3.52702        0.17368       -1.67028
Pd        -0.19340       -0.56548        1.62472
C         -4.43481       -4.00334        1.95047
C         -4.03754       -4.39231        0.51414
C         -2.70095       -5.15660        0.53699
C         -5.12197       -5.32302       -0.06105
H         -3.67031       -3.38449        2.41872
H         -5.36722       -3.43936        1.95236
H         -4.57315       -4.88850        2.57086
H         -2.78531       -6.07405        1.11900
H         -2.39528       -5.42494       -0.47384
H         -1.90763       -4.55445        0.97836
H         -4.87735       -5.62764       -1.07852
H         -5.21419       -6.22697        0.54090
H         -6.09550       -4.83325       -0.07007
C         -6.15038        0.00931       -3.06487
C         -5.42521       -1.31613       -3.36358
C         -6.48529       -2.40573       -3.61450
C         -4.58001       -1.15633       -4.64021
H         -6.72213       -0.06441       -2.13998
H         -5.44129        0.82932       -2.95942
H         -6.83934        0.26821       -3.86867
H         -6.01763       -3.36152       -3.85026
H         -7.12562       -2.53821       -2.74259
H         -7.12480       -2.13631       -4.45502
H         -3.81606       -0.38961       -4.51679
H         -4.08483       -2.09183       -4.89671
H         -5.20491       -0.86889       -5.48564
C         -5.44738        5.39497        0.24436
C         -5.00465        4.08443       -0.43533
C         -6.23873        3.19042       -0.64294
C         -4.38303        4.44003       -1.80107
H         -5.97358        5.19843        1.17806
H         -4.58941        6.03247        0.45780
H         -6.12582        5.95444       -0.39966
H         -6.70000        2.94218        0.31275
H         -6.98520        3.68903       -1.26094
H         -5.96490        2.25654       -1.13114
H         -5.07347        5.03369       -2.39994
H         -3.46852        5.01814       -1.66872
H         -4.13638        3.54773       -2.37480
C         -1.49707        2.44425        4.63786
C         -2.62055        3.28525        3.99745
C         -3.93410        2.99330        4.74482
C         -2.25732        4.77382        4.15084
H         -0.54679        2.60392        4.12897
H         -1.36023        2.71485        5.68456
H         -1.73211        1.38063        4.60353
H         -4.21182        1.94497        4.63656
H         -3.83514        3.20891        5.80851
H         -4.75212        3.59796        4.35469
H         -1.32773        5.00102        3.63090
H         -3.03578        5.41883        3.74567
H         -2.12445        5.03449        5.20072
C          7.47091       -2.33303       -1.23064
C          6.16138       -3.13010       -1.08725
C          5.44822       -3.14608       -2.45420
C          6.47658       -4.58242       -0.68510
H          8.03949       -2.33508       -0.30143
H          8.10337       -2.75842       -2.00964
H          7.26340       -1.29589       -1.49325
H          5.22020       -2.13481       -2.79032
H          6.07721       -3.61096       -3.21322
H          4.51805       -3.71203       -2.40505
H          5.55742       -5.15416       -0.55828
H          7.07916       -5.07624       -1.44724
H          7.02800       -4.62306        0.25350
C          5.87430       -3.13424        4.25171
C          5.59059       -1.71056        3.73859
C          4.60629       -1.02968        4.71030
C          6.89639       -0.89510        3.71642
H          6.26398       -3.11177        5.26928
H          4.96244       -3.73110        4.25236
H          6.60657       -3.64274        3.62570
H          5.02502       -0.98177        5.71534
H          4.38647       -0.00973        4.39575
H          3.66844       -1.58150        4.76996
H          7.64674       -1.36559        3.08212
H          6.71601        0.10899        3.33291
H          7.31643       -0.80379        4.71795
C          0.51342        5.44126       -1.10456
C          1.05786        4.63203        0.08835
C          2.10156        5.46887        0.84938
C         -0.11640        4.33463        1.03490
H          0.02511        6.35412       -0.76382
H          1.30847        5.72799       -1.79129
H         -0.21909        4.85981       -1.66248
H          1.66034        6.38853        1.23328
H          2.50213        4.90798        1.69364
H          2.93527        5.74126        0.20304
H         -0.59150        5.25870        1.36322
H         -0.87458        3.73693        0.53238
H          0.21793        3.79869        1.92253
C          5.20977        1.11735       -3.18447
C          4.55629        2.47187       -2.84525
C          5.63538        3.39049       -2.24202
C          4.01239        3.09366       -4.14325
H          4.49004        0.43496       -3.63500
H          6.02728        1.24821       -3.89327
H          5.61955        0.64651       -2.29108
H          6.47807        3.50239       -2.92408
H          5.24076        4.38456       -2.03549
H          6.01128        2.97810       -1.30581
H          3.25706        2.44920       -4.59026
H          3.55611        4.06506       -3.95619
H          4.80969        3.23291       -4.87313
H         -2.27898       -2.87406       -3.77593
H          2.02539       -1.45685       -3.72989
H         -0.81677       -2.72204       -4.75057
H         -1.51862       -1.29768       -3.97730
H          2.43546       -0.14918       -4.83473
H          1.04371       -1.17682       -5.17130
