59
-75.80589972
Cl         1.53306        0.83833        2.32705
P          1.63282       -0.11047       -0.78863
P         -1.54024       -0.27577       -0.81047
C          0.66515        0.14868       -2.34156
H          0.39514        1.20658       -2.39659
H          1.30999       -0.07291       -3.19790
C         -0.56701       -0.70968       -2.31518
H         -0.30025       -1.76755       -2.27146
H         -1.19746       -0.56538       -3.19797
C          2.64643       -1.65896       -0.94451
H          2.14368       -2.30268       -1.67635
C          3.04711        1.08311       -0.68916
H          3.39059        1.06175        0.35248
C         -2.88963       -1.46621       -0.34847
H         -2.76689       -1.65571        0.72498
C         -2.55642        1.24399       -1.11054
H         -2.63188        1.35646       -2.19909
C          4.00966       -1.15239       -1.48166
H          4.80242       -1.49657       -0.80322
H          4.23920       -1.62195       -2.44966
C          4.07902        0.39809       -1.59996
H          3.87816        0.70099       -2.63792
H          5.09247        0.76781       -1.37864
C         -4.17648       -0.65918       -0.60242
H         -4.55955       -0.91061       -1.60104
H         -4.96539       -0.96592        0.10105
C         -3.92456        0.86974       -0.51782
H         -3.95259        1.18710        0.53382
H         -4.72867        1.42960       -1.01941
C          2.77645       -2.37758        0.39901
H          3.03933       -1.63643        1.16584
H          3.63379       -3.06419        0.35526
C          2.69596        2.51217       -1.08983
H          3.62422        3.07196       -1.27015
H          2.18026        2.49692       -2.05787
C         -2.83402       -2.78243       -1.11871
H         -3.79368       -3.30481       -1.00017
H         -2.75693       -2.56242       -2.19141
C         -1.92144        2.48477       -0.49823
H         -1.79531        2.32343        0.58051
H         -0.90607        2.59736       -0.89924
C          1.53531       -3.15194        0.81255
H          1.29981       -3.93268        0.08703
H          0.66308       -2.50353        0.88729
H          1.66098       -3.63660        1.78347
C          1.85774        3.22980       -0.04388
H          1.56200        4.23076       -0.36602
H          2.40431        3.33346        0.89541
H          0.94967        2.67296        0.18479
C         -1.69943       -3.69048       -0.67439
H         -0.73199       -3.20787       -0.80555
H         -1.67725       -4.62643       -1.23734
H         -1.78884       -3.94502        0.38350
C         -2.72084        3.75409       -0.75053
H         -3.72105        3.68597       -0.31913
H         -2.23807        4.63405       -0.31923
H         -2.84291        3.93671       -1.81985
Cl        -1.66723        0.09325        2.34080
Pd         0.02544        0.04849        0.86934
