45
-71.81841129
C          2.03866        1.24001        2.38219
P          1.48777        0.81629        0.69414
P         -1.11102        0.04638       -0.92187
C         -0.61953       -0.59284       -2.55928
Cl         1.48345       -1.90755        2.25709
H          1.17543        1.42182        3.01601
H         -1.18126       -0.08659       -3.33907
Cl        -1.36776       -2.73905        0.56394
C          0.47632        2.12153       -0.03002
C         -0.64571        1.77887       -0.75078
C         -1.42185        2.75634       -1.33862
C         -1.06644        4.08705       -1.20467
C          0.06245        4.43139       -0.48641
C          0.83787        3.44676        0.10073
H         -2.30082        2.47133       -1.89441
H         -1.67022        4.85368       -1.66172
H          0.34141        5.46726       -0.38466
H          1.72472        3.70409        0.65658
Pd         0.07654       -1.03750        0.74685
H         -0.81309       -1.66036       -2.61485
H          2.66000        2.13062        2.36619
H          0.43965       -0.41620       -2.72246
C         -5.54867       -0.38298       -0.01454
C         -4.69323        0.18142        0.91077
C         -3.34730        0.30892        0.61603
C         -2.86818       -0.12751       -0.59823
C         -3.71660       -0.69292       -1.52290
C         -5.06269       -0.82023       -1.23095
H         -6.59697       -0.48500        0.21413
H         -5.07093        0.51910        1.86184
H         -2.66482        0.74526        1.32889
H         -3.32598       -1.03724       -2.46648
H         -5.73031       -1.26341       -1.95154
C          4.96803        0.00875       -2.12318
C          3.92869       -0.89640       -2.03973
C          2.87521       -0.65857       -1.17586
C          2.86968        0.47808       -0.39938
C          3.90016        1.38673       -0.48394
C          4.95566        1.15077       -1.34702
H          5.78988       -0.17621       -2.79548
H          3.93777       -1.78775       -2.64534
H          2.06248       -1.36210       -1.10133
H          3.87342        2.27918        0.12079
H          5.76534        1.85873       -1.41410
H          2.61372        0.41715        2.79698
