111
-148.55920748
P         -2.53397        2.29518        0.39297
P         -0.05144        0.33223        0.44707
C         -1.68961        1.96329        1.95885
C         -0.60878        1.10970        1.97584
C         -2.99654        4.07782        0.22394
C         -2.11015        4.77261       -0.78679
C         -2.13010        2.54319        3.13115
H         -2.98577        3.19833        3.11264
C         -1.47734        2.27037        4.32098
H         -1.81919        2.72306        5.23741
C         -0.39084        1.41677        4.33548
H          0.11698        1.20365        5.26170
C          0.04307        0.83199        3.15914
H          0.88782        0.16122        3.15422
Pd        -1.24069        1.35757       -1.26255
Cl        -2.69134        2.07446       -2.81271
Cl         0.13160        0.34367       -2.72181
C         -4.48460        4.01057       -0.16882
C         -4.20592        1.50883        0.30324
H         -2.19636        4.29916       -1.76639
H         -2.38433        5.82381       -0.90293
H         -1.05897        4.72574       -0.49181
H         -4.56052        4.03666       -1.26466
H         -5.01602        4.90695        0.18545
H         -4.26102        1.02581       -0.68139
C         -5.16140        2.71530        0.36370
C         -4.39651        0.49755        1.41381
H         -2.88078        4.52871        1.21780
H         -5.47366        2.86757        1.40600
H         -6.08635        2.49868       -0.19210
H         -3.63366       -0.28359        1.37529
H         -4.31952        0.97717        2.39121
H         -5.37736        0.01982        1.35605
C         -1.08196       -4.10227        0.29387
C         -0.02746       -3.64716        1.12965
C          0.26016       -2.29204        1.14124
C         -0.50386       -1.40005        0.43459
C         -1.61067       -1.81979       -0.25693
C         -1.94875       -3.16093       -0.32183
O         -1.21462       -5.48515        0.00678
C          0.80877       -4.56532        2.03711
H          1.10446       -1.91878        1.69647
H         -2.20632       -1.08883       -0.77500
C         -3.23411       -3.54211       -1.07549
C          4.44108        0.80183       -0.14919
C          3.72299        1.78952        0.57245
C          2.36096        1.61168        0.75258
C          1.70932        0.54019        0.19935
C          2.38075       -0.35916       -0.58636
C          3.74026       -0.23444       -0.81714
O          5.86087        0.83274       -0.17602
C          4.40609        3.02300        1.18345
H          1.78718        2.30658        1.34076
H          1.81941       -1.16501       -1.02724
C          4.42711       -1.22106       -1.77456
C          0.19178       -5.96682        2.18583
C          2.23203       -4.68815        1.46811
C          0.88119       -3.95213        3.45298
C         -3.68587       -4.98114       -0.77220
C         -4.38498       -2.60783       -0.64162
C         -3.00248       -3.38172       -2.58736
C         -0.43625       -5.88987       -1.10738
H         -0.84262       -5.89767        2.52066
H          0.20085       -6.50438        1.24075
H          0.74473       -6.56477        2.90991
H          2.84875       -5.33036        2.09632
H          2.21988       -5.11080        0.46511
H          2.71359       -3.71255        1.41274
H          1.41325       -4.61359        4.13624
H          1.40260       -2.99640        3.45416
H         -0.11943       -3.78987        3.85268
H         -2.96669       -5.70695       -1.14423
H         -3.78895       -5.13314        0.30163
H         -4.64542       -5.19875       -1.24066
H         -4.51566       -2.63529        0.43973
H         -4.20091       -1.57618       -0.93580
H         -5.32541       -2.91096       -1.10110
H         -2.20772       -4.03842       -2.93557
H         -3.90589       -3.62110       -3.14756
H         -2.71761       -2.35859       -2.83110
H         -0.56169       -6.96149       -1.26361
H         -0.75678       -5.35622       -2.00055
H          0.61552       -5.67212       -0.92823
C          6.47724        0.08291        0.86318
C          3.41876        4.20909        1.26941
C          4.88971        2.68495        2.60175
C          5.58998        3.48704        0.31544
C          4.90425       -2.45020       -0.98682
C          3.44061       -1.68985       -2.86916
C          5.61417       -0.55737       -2.49578
H          2.62855        4.02427        1.99563
H          3.93266        5.11810        1.58123
H          2.95806        4.40090        0.30066
H          5.60623        1.86721        2.58919
H          5.36966        3.54590        3.06636
H          4.05343        2.38323        3.23208
H          5.26307        3.68505       -0.70479
H          6.03375        4.39944        0.71302
H          6.37162        2.73248        0.27454
H          5.60781       -2.17074       -0.20628
H          4.06243       -2.95155       -0.51063
H          5.39609       -3.16778       -1.64304
H          2.97491       -0.83670       -3.36181
H          3.95551       -2.27642       -3.62957
H          2.65248       -2.31980       -2.45936
H          6.39306       -0.26781       -1.79489
H          5.28925        0.33912       -3.02276
H          6.06037       -1.23561       -3.22264
H          7.11375        0.73824        1.45754
H          5.72140       -0.37076        1.50552
H          7.10289       -0.69739        0.43023
