72
-98.09064261
Fe        -0.00466        2.76289        0.03543
P          1.81914       -0.10475        0.15781
P         -1.86441       -0.08785       -0.13116
C          1.36599        1.52965        0.86142
C          0.29832        1.80125        1.80946
C          0.24137        3.23577        2.02683
C          1.29062        3.85386        1.23836
C          1.98489        2.80037        0.51889
C         -1.36381        1.56352       -0.75788
C         -1.97716        2.83787       -0.41758
C         -1.27623        3.88252       -1.14547
C         -0.24387        3.25259       -1.94888
C         -0.31082        1.81881       -1.72657
C          2.80204        0.15549       -1.38829
C          4.25085        0.01847       -0.88507
C          3.10137       -0.95846        1.19561
C          4.34486       -1.00122        0.28154
C         -2.82396        0.07558        1.44691
C         -4.28810       -0.18483        1.02950
C         -3.20966       -0.75521       -1.21120
C         -4.46879       -0.21366       -0.51343
H         -0.36602        1.06351        2.25750
H         -0.45541        3.75582        2.68824
H          1.52105        4.92066        1.19704
H          2.83038        2.93547       -0.15875
H         -2.82379        2.97782        0.25811
H          0.30764        1.06385       -2.21254
Cl         1.56126       -3.09822       -0.31545
Cl        -1.66105       -3.07256        0.08796
Pd        -0.02466       -1.52148       -0.01728
H          2.59533        1.17224       -1.74359
C          2.42345       -0.86107       -2.46118
H          2.73125       -1.97182        1.39391
C          3.33227       -0.24315        2.52413
H          4.62191        0.99695       -0.54543
H          4.91091       -0.27898       -1.71253
H          4.46818       -2.01322       -0.13113
H          5.24898       -0.81843        0.87959
H         -1.50022        4.95099       -1.10963
H          0.44277        3.76370       -2.62759
H          2.73904       -1.85833       -2.12774
H          4.28582       -0.57735        2.95634
H         -2.68974        1.10991        1.78449
C         -2.31299       -0.90005        2.50311
H         -3.17742       -1.84802       -1.13652
C         -3.05627       -0.32884       -2.66593
H         -4.95676        0.55946        1.48686
H         -4.60452       -1.15183        1.44327
H         -5.35115       -0.80758       -0.79840
H         -4.66469        0.80323       -0.88235
H         -2.51128       -1.92426        2.16034
H         -2.96042        0.76408       -2.70705
C          3.01475       -0.54587       -3.82732
H          2.71525       -1.27824       -4.58049
H          2.69131        0.43600       -4.17822
H          4.10538       -0.53439       -3.80008
C          2.20961       -0.47831        3.52332
H          1.24460       -0.18674        3.11067
H          2.13213       -1.53458        3.78827
H          2.35694        0.08375        4.44822
C         -2.93246       -0.67054        3.87325
H         -4.01859       -0.77250        3.84055
H         -2.55842       -1.37909        4.61575
H         -2.71494        0.33464        4.23943
C         -1.87167       -0.99275       -3.34967
H         -1.97932       -2.07901       -3.35930
H         -1.75395       -0.66248       -4.38413
H         -0.94199       -0.77177       -2.82581
H          1.33006       -0.92147       -2.53371
H          3.46316        0.82939        2.32942
H         -1.21911       -0.83609        2.56914
H         -3.98315       -0.55935       -3.20943
