105
-153.07100279
Cl        -0.02490        1.88381        3.03734
Pd        -0.59440        1.12459        0.99064
P         -1.25598        0.52013       -1.16158
N         -0.92499       -1.03746       -1.90190
C          0.08667       -1.95804       -1.60934
C          0.30627       -2.47271       -0.30378
C          1.31317       -3.43949       -0.10430
C          1.51401       -4.00705        1.28127
C          2.37819       -5.27647        1.33447
C          3.60909       -5.13970        0.43411
C          3.18852       -4.90091       -1.02355
C          2.08664       -3.88288       -1.18030
C          1.82872       -3.39019       -2.45269
C          0.84714       -2.45887       -2.66601
H          0.66407       -2.08503       -3.65830
H          2.41815       -3.74857       -3.27967
H          4.05227       -4.58161       -1.62081
H          4.22018       -4.29686        0.78064
H          2.67553       -5.50401        2.36793
H          1.96715       -3.23066        1.90829
C         -0.62655       -2.17012        0.80986
C         -0.13050       -1.58029        2.00775
C         -0.98390       -1.48952        3.11170
C         -2.27784       -1.93387        3.04106
C         -2.78019       -2.51333        1.88273
C         -4.20232       -3.01515        1.89978
C         -4.49379       -4.06867        0.82163
C         -3.95001       -3.61785       -0.53654
C         -2.43447       -3.36367       -0.47581
C         -1.95543       -2.63915        0.76166
H         -1.89747       -4.31721       -0.54403
H         -4.46306       -2.69880       -0.84574
H         -5.57114       -4.27876        0.76036
H         -4.87813       -2.16088        1.77803
H         -2.92371       -1.83786        3.89742
H         -0.61873       -1.02862        4.01269
N          1.15279       -1.02144        2.09614
P          1.57055        0.18396        0.87963
C          2.67086       -0.39939       -0.39977
C          2.52630        0.09216       -1.67241
C          3.41369       -0.29287       -2.66051
C          4.46153       -1.15650       -2.36883
C          4.59962       -1.62676       -1.06923
C          3.70868       -1.24160       -0.08340
H          3.81464       -1.59279        0.93066
H          5.40693       -2.29926       -0.83484
C          5.39229       -1.60740       -3.43965
H          3.29329        0.07251       -3.66595
H          1.71598        0.76785       -1.88464
C          2.40833        1.61203        1.57696
C          3.19937        1.48694        2.69324
C          3.84518        2.59906        3.20241
C          3.71127        3.83764        2.58886
C          2.91010        3.94087        1.45966
C          2.26571        2.82819        0.95091
H          1.64426        2.90482        0.07203
H          2.79000        4.89881        0.98320
C          4.37947        5.04139        3.15620
H          4.45663        2.51159        4.08422
H          3.31334        0.52251        3.16074
H          1.36279       -0.57855        2.98131
H         -1.19393       -0.92515       -2.87095
C         -0.52192        1.86453       -2.09702
C         -0.56538        3.13430       -1.57073
C          0.03079        4.18198       -2.24659
C          0.67246        3.96422       -3.45822
C          0.67952        2.68124       -3.98931
C          0.08253        1.63506       -3.31033
H          0.10402        0.63670       -3.71454
H          1.15996        2.50589       -4.93675
C          1.30124        5.09422       -4.19641
H         -0.00066        5.17704       -1.83670
H         -1.07925        3.29887       -0.63657
C         -3.03871        0.70753       -1.22161
C         -3.81856       -0.00445       -0.34489
C         -5.19456        0.12839       -0.38121
C         -5.79793        0.96916       -1.30606
C         -4.99234        1.68467       -2.18166
C         -3.61638        1.55084       -2.14083
H         -2.98968        2.10567       -2.82025
H         -5.44915        2.35138       -2.89294
C         -7.27762        1.13428       -1.32574
H         -5.80988       -0.41626        0.31402
H         -3.34302       -0.65127        0.37291
Cl        -2.52725        2.26850        1.18152
H          2.85621       -5.84513       -1.47127
H          1.78191       -6.13633        1.00427
H          4.25442       -6.02574        0.51680
H          0.53085       -4.20575        1.72631
H         -4.18827       -4.35835       -1.31317
H         -2.12863       -2.79394       -1.35941
H         -4.42398       -3.42155        2.89500
H         -4.02332       -5.01897        1.10405
H          6.38391       -1.81780       -3.03657
H          5.02246       -2.51673       -3.91549
H          5.50367       -0.84472       -4.21163
H          4.62559        5.76069        2.37383
H          3.73106        5.53861        3.87884
H          5.30738        4.77454        3.66396
H          2.14398        4.75101       -4.79818
H          0.58130        5.56882       -4.86451
H          1.67436        5.85431       -3.50853
H         -7.63033        1.41418       -2.31939
H         -7.78029        0.20761       -1.04501
H         -7.58895        1.91155       -0.62656
