64
-97.20883010
Cl        -1.51691       -1.32230       -2.65056
Cl         1.46504       -2.27490       -2.60384
P          1.94415       -0.62671        0.24077
C          2.30155       -2.27061        1.00926
C          3.64425       -0.15593       -0.31439
P         -1.24555       -0.08249        0.39253
C          1.30151        0.60062        1.43068
C         -0.12558        0.82650        1.52288
C         -0.34585        1.91188        2.46854
C          0.95043        2.35320        2.95494
C          1.97104        1.54545        2.30949
H         -1.31183        2.34009        2.74080
H          1.12664        3.15218        3.67843
Pd         0.18799       -1.06220       -1.20988
H          3.05036        1.62493        2.45412
C         -4.70209        2.66217       -0.72566
C         -3.96524        2.05527       -1.72316
C         -2.93295        1.19857       -1.39061
C         -2.63364        0.96167       -0.06854
C         -3.38034        1.54770        0.92852
C         -4.41651        2.40398        0.60049
H         -5.50818        3.33001       -0.98263
H         -4.19715        2.24308       -2.75869
H         -2.37380        0.69001       -2.15720
H         -3.15444        1.32701        1.95948
H         -4.99903        2.86794        1.37946
C         -2.79749       -3.89778        2.30677
C         -2.83715       -3.74907        0.93396
C         -2.36794       -2.58428        0.35599
C         -1.86505       -1.58138        1.15124
C         -1.82326       -1.72231        2.51882
C         -2.29137       -2.88678        3.10091
H         -3.16212       -4.80537        2.75962
H         -3.22921       -4.53842        0.31390
H         -2.37360       -2.45100       -0.71421
H         -1.42468       -0.92262        3.12261
H         -2.26047       -3.00388        4.17173
C          3.76284       -0.23097       -1.82156
H          3.82660        0.86648        0.04233
C          4.53958       -1.17246        0.42170
H          4.87209       -0.75205        1.38220
C          3.78844       -2.50831        0.67646
H          5.45602       -1.34690       -0.16087
C          2.00460       -2.22873        2.49257
H          1.65946       -3.00732        0.50724
H          4.26314       -3.07069        1.49341
H          3.87428       -3.14902       -0.21330
H          2.61193       -1.46557        2.98343
H          0.95668       -1.98490        2.68092
H          2.22033       -3.18618        2.97271
H          3.01131        0.38737       -2.31673
H          4.74895        0.09112       -2.16413
H          3.61469       -1.25616       -2.16469
Fe         0.82552        2.49364        0.89784
C          0.36252        4.37004        0.22227
C         -0.47269        3.37394       -0.42417
C          0.39543        2.43526       -1.10934
C          1.76755        2.85486       -0.89616
C          1.74905        4.05086       -0.07221
H          0.00908        5.22196        0.80781
H         -1.56369        3.34241       -0.40657
H          0.06669        1.60471       -1.73657
H          2.65696        2.40040       -1.33533
H          2.62241        4.62321        0.24881
