72
-108.39526205
Cl        -1.68999        0.96141        2.65852
Cl         1.17014       -0.40292        2.72233
P          1.05907       -1.17435       -0.32586
P         -2.23099        0.11971       -0.35119
C         -3.13915       -1.53318       -0.10657
C         -3.43748       -1.72592        1.38206
C         -4.43618       -1.55680       -0.90828
C         -3.40228        1.59843       -0.08310
C         -4.26551        1.81971       -1.33196
C         -1.43566        0.50878       -2.02502
C         -1.62598       -0.55462       -3.08626
C          1.16035        0.20724       -1.50382
C          0.01169        0.97220       -1.98867
C          0.53249        2.02090       -2.86801
C          1.97482        1.89405       -2.93116
C          2.36073        0.77630       -2.09188
C         -2.23614       -2.67149       -0.55512
H         -4.12197       -0.97496        1.76712
H         -3.89957       -2.69899        1.55618
H         -5.15331       -0.82880       -0.53390
H         -4.91044       -2.53702       -0.83835
C         -4.31965        1.40878        1.12154
H         -4.74377        0.90035       -1.66322
H         -3.69258        2.21914       -2.16741
H         -2.00536        1.38838       -2.34141
H         -0.98462       -1.40937       -2.88900
H         -1.34327       -0.17970       -4.07221
H         -2.65764       -0.89783       -3.14951
H         -0.07481        2.71219       -3.45550
H          2.64766        2.50310       -3.53893
Pd        -0.46501       -0.19513        1.18392
H          3.37115        0.37643       -1.98967
C         -2.51029        2.81247        0.14089
H         -5.05500        2.54390       -1.12427
H         -3.75766        1.15237        2.01705
H         -4.86301        2.33051        1.33446
H         -5.06590        0.63731        0.94187
H         -1.76503        2.90719       -0.64975
H         -3.09980        3.73119        0.15889
H         -1.99374        2.73876        1.09639
H         -2.52713       -1.68666        1.97993
H         -4.26051       -1.35348       -1.96310
H         -1.30014       -2.66291        0.00172
H         -2.71181       -3.63759       -0.37829
H         -2.01075       -2.61395       -1.61695
C          2.61254       -1.45931        0.57169
C          3.72704       -0.65651        0.59817
C          4.66011       -1.27521        1.42872
C          4.07772       -2.43559        1.87454
O          2.82258       -2.56163        1.35305
H          3.85177        0.28383        0.09071
H          5.64349       -0.91067        1.67711
H          4.53134       -3.15554        2.54466
C          0.73912       -2.73959       -1.16234
C          1.11871       -3.94063       -0.61755
C          0.72694       -4.94014       -1.50897
C          0.12362       -4.30419       -2.56611
O          0.12214       -2.95299       -2.36460
H          1.64287       -4.06510        0.31651
H          0.87563       -6.00127       -1.39326
H         -0.29528       -4.78866       -3.43939
Fe         1.34713        2.13993       -0.98967
C          0.81663        3.89712       -0.02218
C          2.15212        3.98945       -0.58326
C          2.96972        2.94856        0.01641
C          2.14547        2.20865        0.95136
C          0.81134        2.76494        0.88540
H         -0.02346        4.55926       -0.24194
H          2.49463        4.73928       -1.29999
H          4.03384        2.78621       -0.16844
H          2.44814        1.37552        1.58627
H         -0.01744        2.43923        1.51594
