171
-217.84814893
P         -1.62920        0.45367       -0.26807
P          1.57502       -0.36126       -0.29655
C         -0.90024        1.43398       -1.59133
C          0.84313       -1.27619       -1.65747
C         -0.10336        0.84991       -2.57049
C          0.53491        1.68228       -3.51050
C          0.32662        3.05027       -3.45718
C         -0.48711        3.60814       -2.49469
C         -1.09240        2.79416       -1.55810
C          1.03549       -2.63503       -1.70408
C          0.46264       -3.38240       -2.71459
C         -0.31366       -2.75922       -3.66878
C         -0.52238       -1.39024       -3.63755
C          0.07881       -0.62596       -2.61901
Cl         1.66811        0.42592        2.84641
Cl        -1.56664       -0.08707        2.94305
C         -1.35541       -0.74899       -4.69186
C          1.43454        1.12605       -4.55833
H         -0.64482        4.67395       -2.46729
H         -1.72036        3.22507       -0.79586
H          1.63854       -3.11221       -0.94824
H          0.62292       -4.44720       -2.75787
H          0.81558        3.68101       -4.18045
H         -0.76830       -3.33894       -4.45434
C         -3.65417       -3.41085       -1.46120
C         -2.71438       -3.43160       -0.43786
C         -2.08518       -2.23754       -0.11354
C         -2.38703       -1.08244       -0.79102
C         -3.32126       -1.07617       -1.79744
C         -3.98000       -2.24860       -2.15009
H         -4.16439       -4.31852       -1.72305
H         -1.36795       -2.20264        0.68849
H         -3.54070       -0.14491       -2.29134
C         -4.62766        2.87181        2.12752
C         -3.28363        3.22107        2.19138
C         -2.38538        2.48506        1.43087
C         -2.81723        1.43501        0.65979
C         -4.14646        1.09539        0.61882
C         -5.08328        1.81411        1.34996
H         -5.34370        3.42774        2.70293
H         -1.33444        2.72000        1.45574
H         -4.44572        0.25448        0.01939
C          4.30527       -3.08596        2.09984
C          2.93093       -3.19369        2.27660
C          2.11103       -2.37191        1.51338
C          2.65260       -1.45052        0.65142
C          4.01343       -1.33851        0.51384
C          4.87086       -2.16134        1.22999
H          4.94680       -3.74116        2.65783
H          1.04051       -2.42997        1.60270
H          4.41481       -0.59623       -0.15272
C          3.93342        3.26419       -1.61032
C          4.21008        2.03956       -2.20616
C          3.45489        0.94182       -1.81031
C          2.48474        1.07770       -0.84799
C          2.22172        2.29541       -0.27279
C          2.93400        3.42324       -0.65851
H          4.52855        4.11696       -1.87968
H          3.62094       -0.03053       -2.24212
H          1.46120        2.35561        0.48585
Pd         0.00974        0.13974        1.36110
C         -2.64344       -4.44272        1.85387
C         -2.37668       -4.69984        0.35825
C         -0.89410       -5.05189        0.14444
C         -3.23197       -5.90115       -0.08780
H         -2.41045       -5.32490        2.44985
H         -2.04166       -3.61705        2.23054
H         -3.69066       -4.19037        2.01886
H         -0.70287       -5.28165       -0.90296
H         -0.24698       -4.22300        0.42562
H         -0.60803       -5.92054        0.73715
H         -3.05858       -6.13860       -1.13724
H         -2.98519       -6.78831        0.49536
H         -4.29397       -5.69937        0.05100
C         -6.41115       -2.69042       -2.55734
C         -5.08162       -2.28241       -3.21909
C         -4.71200       -3.30649       -4.30842
C         -5.27378       -0.90489       -3.88307
H         -6.34323       -3.68205       -2.11142
H         -6.68046       -1.98783       -1.76915
H         -7.22120       -2.70679       -3.28627
H         -4.63576       -4.31264       -3.89815
H         -5.46481       -3.32577       -5.09629
H         -3.75406       -3.05981       -4.76391
H         -4.35718       -0.56812       -4.36536
H         -6.05099       -0.94852       -4.64592
H         -5.57367       -0.15501       -3.15131
C         -1.63303        3.85442        3.97308
C         -2.76214        4.37362        3.06060
C         -3.87207        4.96322        3.95171
C         -2.22025        5.48570        2.14572
H         -1.98659        3.02783        4.58891
H         -0.78255        3.49719        3.39410
H         -1.27380        4.64124        4.63597
H         -4.29789        4.19926        4.60199
H         -3.47745        5.75648        4.58654
H         -4.67326        5.39276        3.35072
H         -1.41670        5.11414        1.51195
H         -3.00707        5.86747        1.49541
H         -1.82958        6.31833        2.73040
C         -7.02051        1.06919        2.75427
C         -6.57650        1.45748        1.33235
C         -6.86614        0.27245        0.38908
C         -7.38626        2.67378        0.84693
H         -6.43993        0.22240        3.11984
H         -6.88216        1.89487        3.45128
H         -8.07387        0.79004        2.77193
H         -6.33294       -0.62309        0.70787
H         -7.93001        0.03589        0.37974
H         -6.57107        0.50527       -0.63390
H         -7.25880        3.52678        1.51232
H         -7.06573        2.97585       -0.14999
H         -8.45026        2.44168        0.80354
C          0.86533       -3.92350        3.56643
C          2.35380       -4.20462        3.27824
C          3.11640       -4.11333        4.61491
C          2.49299       -5.62041        2.69490
H          0.72147       -2.90053        3.91426
H          0.25733       -4.07324        2.67677
H          0.48479       -4.59486        4.33596
H          2.67528       -4.77528        5.35995
H          4.16138       -4.39821        4.50267
H          3.08347       -3.09665        5.00614
H          1.95936       -5.70115        1.74804
H          3.53870       -5.86533        2.51054
H          2.08660       -6.36655        3.37747
C          6.74671       -2.26032       -0.43084
C          6.38677       -2.00422        1.04448
C          7.17521       -2.99618        1.92059
C          6.79736       -0.57187        1.43527
H          6.44227       -3.26212       -0.73321
H          6.25057       -1.54764       -1.08829
H          7.82076       -2.16995       -0.59223
H          6.92662       -4.02666        1.66743
H          8.24829       -2.87101        1.77618
H          6.96442       -2.83847        2.97817
H          7.87311       -0.43169        1.33116
H          6.30285        0.16788        0.80676
H          6.52730       -0.36362        2.47029
C          5.27024        3.00403       -4.28033
C          5.37545        1.91201       -3.19794
C          5.37876        0.53785       -3.89685
C          6.69805        2.07469       -2.42780
H          5.35117        4.00190       -3.85181
H          6.06647        2.89796       -5.01699
H          4.31779        2.94096       -4.80498
H          5.53086       -0.26902       -3.18080
H          4.43994        0.36112       -4.42056
H          6.18346        0.47882       -4.62958
H          6.79122        1.31016       -1.65663
H          7.55388        1.98626       -3.09675
H          6.75056        3.04800       -1.94075
C          1.41365        4.78435        0.85600
C          2.67294        4.79990       -0.03300
C          2.46202        5.84253       -1.14730
C          3.88325        5.19702        0.82950
H          1.53648        4.11139        1.70429
H          1.20728        5.77784        1.25374
H          0.54202        4.46580        0.28512
H          2.22944        6.82061       -0.72648
H          3.35183        5.95204       -1.76568
H          1.63726        5.55008       -1.79621
H          3.72753        6.16875        1.29776
H          4.04979        4.46377        1.61846
H          4.79105        5.25444        0.22968
H         -2.17976       -1.39786       -4.98769
H          0.95650        1.15406       -5.53844
H         -0.76254       -0.54030       -5.58320
H         -1.78360        0.19145       -4.34211
H          1.70949        0.09255       -4.34391
H          2.35614        1.70497       -4.62056
