171
-217.84583874
P         -1.61489        0.40115       -0.33911
P          1.60931       -0.44357       -0.30736
C         -0.86797        1.33021       -1.68159
C          0.87039       -1.40466       -1.63466
C         -0.08763        0.68233       -2.63220
C          0.54447        1.45145       -3.62806
C          0.35036        2.82265       -3.64953
C         -0.44374        3.44331       -2.70854
C         -1.04753        2.69123       -1.72009
C          1.05287       -2.76621       -1.62242
C          0.43824       -3.55935       -2.57098
C         -0.37493       -2.97909       -3.52122
C         -0.57290       -1.60868       -3.55173
C          0.07649       -0.79708       -2.60156
Cl         1.57388        0.24732        2.86570
Cl        -1.56060       -0.34836        2.90650
C         -1.46921       -1.02474       -4.58746
C          1.39649        0.81400       -4.66930
H         -0.59238        4.51016       -2.74350
H         -1.66536        3.16808       -0.97668
H          1.67814       -3.21270       -0.86647
H          0.58831       -4.62654       -2.56241
H          0.83026        3.40586       -4.41730
H         -0.87119       -3.59409       -4.25299
C         -3.95973       -3.23651       -1.63303
C         -2.93693       -3.39550       -0.70651
C         -2.22091       -2.26607       -0.33162
C         -2.50880       -1.04611       -0.89021
C         -3.50943       -0.90739       -1.82004
C         -4.26378       -2.00857       -2.20785
H         -4.55266       -4.09225       -1.89813
H         -1.44026       -2.32502        0.40667
H         -3.70434        0.07113       -2.22527
C         -4.33322        2.96668        2.23504
C         -4.88461        1.91956        1.50534
C         -4.03232        1.15962        0.71709
C         -2.69196        1.44562        0.65454
C         -2.16387        2.48254        1.38221
C         -2.97347        3.25640        2.20345
H         -4.97720        3.56846        2.84659
H         -4.41812        0.32807        0.15387
H         -1.10744        2.67785        1.31726
C          4.48706       -2.89157        2.20490
C          3.13458       -3.21445        2.23587
C          2.27063       -2.47819        1.43579
C          2.74285       -1.44898        0.66072
C          4.07829       -1.13418        0.65460
C          4.98187       -1.85349        1.42358
H          5.16990       -3.45663        2.80937
H          1.21593       -2.69559        1.43066
H          4.41952       -0.30901        0.05425
C          3.85567        3.29008       -1.50982
C          2.90080        3.37434       -0.50357
C          2.19860        2.22174       -0.18015
C          2.44501        1.04551       -0.84283
C          3.39325        0.97587       -1.83348
C          4.12398        2.10504       -2.18498
H          4.42558        4.16317       -1.76598
H          1.47161        2.23417        0.61382
H          3.57044        0.02747       -2.31160
Pd        -0.02270       -0.01971        1.30195
C         -2.45794       -5.80911       -1.21607
C         -2.66013       -4.77430       -0.09299
C         -3.85729       -5.18346        0.78251
C         -1.39114       -4.75661        0.78095
H         -2.21408       -6.78825       -0.80420
H         -3.35528       -5.92004       -1.82324
H         -1.64380       -5.50808       -1.87425
H         -4.77212       -5.24431        0.19383
H         -3.68937       -6.15629        1.24423
H         -4.01891       -4.45502        1.57695
H         -1.17774       -5.75029        1.17448
H         -0.52721       -4.43444        0.20060
H         -1.50702       -4.08533        1.63148
C         -5.51577       -0.48798       -3.81857
C         -5.45113       -1.88639       -3.17329
C         -6.75373       -2.12697       -2.38909
C         -5.32374       -2.93278       -4.29719
H         -4.59566       -0.26159       -4.35662
H         -6.33928       -0.42815       -4.53002
H         -5.67599        0.28566       -3.06809
H         -6.76717       -3.12253       -1.94650
H         -6.85717       -1.40209       -1.58187
H         -7.62398       -2.03630       -3.03885
H         -4.38755       -2.80781       -4.83974
H         -5.34927       -3.94781       -3.90330
H         -6.14107       -2.83646       -5.01173
C         -6.96438        1.69127        0.12530
C         -6.37796        1.56560        1.54383
C         -7.16284        2.49984        2.48416
C         -6.54138        0.11767        2.04409
H         -6.84222        2.70585       -0.25338
H         -6.46821        1.01417       -0.56887
H         -8.02802        1.45378        0.11974
H         -6.78828        2.43280        3.50543
H         -7.09198        3.53675        2.15620
H         -8.21911        2.23157        2.50212
H         -7.59405       -0.15746        2.10661
H         -6.05175       -0.59068        1.37669
H         -6.10157        0.00149        3.03438
C         -2.15507        5.61254        2.06182
C         -2.36354        4.41595        3.00453
C         -1.00884        3.98799        3.60714
C         -3.28411        4.84355        4.16487
H         -1.69376        6.44929        2.58605
H         -1.51286        5.34086        1.22531
H         -3.10652        5.95138        1.65230
H         -1.12039        3.08027        4.19985
H         -0.26699        3.79565        2.83418
H         -0.60714        4.76702        4.25476
H         -2.80365        5.60471        4.77953
H         -4.21794        5.26731        3.79700
H         -3.51892        3.99479        4.80700
C          3.62728       -4.88882        4.08961
C          2.57187       -4.34707        3.10615
C          2.11056       -5.49552        2.19282
C          1.37643       -3.82049        3.92597
H          3.19796       -5.65717        4.73251
H          4.46688       -5.33841        3.56009
H          4.00739       -4.09367        4.73078
H          1.68334       -6.31194        2.77480
H          1.35557       -5.15341        1.48699
H          2.94767       -5.89060        1.61757
H          0.99305       -4.59029        4.59529
H          1.67299       -2.96355        4.53034
H          0.55567       -3.50598        3.28323
C          6.99229       -1.58966       -0.05104
C          6.46559       -1.46065        1.39062
C          7.31580       -2.36188        2.30595
C          6.61190       -0.00224        1.86498
H          8.04912       -1.32905       -0.10552
H          6.87664       -2.61099       -0.41325
H          6.45198       -0.93133       -0.73021
H          6.98957       -2.28652        3.34308
H          7.25257       -3.40527        1.99754
H          8.36533       -2.07014        2.26871
H          7.65828        0.30224        1.87462
H          6.07195        0.68324        1.21259
H          6.21557        0.11542        2.87328
C          1.16148        5.08843        0.04731
C          2.62218        4.66564        0.27775
C          3.54207        5.81664       -0.17167
C          2.85726        4.41025        1.77899
H          0.92078        5.98833        0.61295
H          0.98381        5.29474       -1.00746
H          0.47365        4.30232        0.35414
H          3.39327        6.04906       -1.22601
H          3.33355        6.72239        0.39768
H          4.59079        5.56346       -0.01711
H          2.67925        5.31400        2.36144
H          2.19461        3.63414        2.15940
H          3.88296        4.08864        1.95812
C          6.59112        2.34585       -2.52303
C          5.25131        2.05970       -3.22624
C          4.99806        3.12343       -4.31107
C          5.34421        0.67966       -3.90640
H          6.77925        1.61173       -1.73970
H          7.41975        2.30594       -3.22981
H          6.59182        3.33296       -2.06199
H          5.76990        3.08675       -5.07967
H          4.03477        2.96323       -4.79360
H          4.99738        4.12833       -3.89098
H          5.57077       -0.10165       -3.18128
H          4.41182        0.42429       -4.40826
H          6.13574        0.67063       -4.65562
H         -0.98441       -1.01871       -5.56463
H          2.24860        1.44727       -4.91710
H         -1.75024        0.00026       -4.34209
H         -2.38837       -1.60474       -4.67369
H          0.82995        0.64480       -5.58590
H          1.78616       -0.14691       -4.33046
