111
-148.55030967
P         -2.21123        2.53866        0.56125
P         -0.26991        0.01291        0.54546
C         -1.49852        1.93157        2.11203
C         -0.66140        0.83726        2.10268
C         -1.90552        4.35827        0.41017
C         -1.23490        4.69243       -0.90441
C         -1.74089        2.60422        3.29273
H         -2.37449        3.47609        3.28802
C         -1.14971        2.17205        4.46722
H         -1.34115        2.69533        5.38981
C         -0.30107        1.08227        4.45397
H          0.17265        0.75460        5.36472
C         -0.04721        0.42078        3.26587
H          0.64846       -0.40323        3.23337
Pd        -1.39282        1.18348       -1.12087
Cl        -2.76950        2.30868       -2.49201
Cl        -0.33174       -0.03938       -2.67454
C         -3.31585        4.96383        0.56538
C         -4.06213        2.51023        0.50601
H         -1.02032        5.76059       -0.98641
H         -0.29569        4.14785       -1.02215
H         -1.87775        4.42058       -1.74304
H         -3.38290        5.89180       -0.02107
H         -3.48290        5.26224        1.61075
H         -4.33222        1.81787       -0.30342
C         -4.42365        3.96269        0.13309
C         -4.65845        2.04126        1.81590
H         -1.25742        4.63776        1.25215
H         -5.38819        4.23030        0.58855
H         -4.57726        4.04015       -0.95336
H         -5.74762        1.97661        1.75925
H         -4.27517        1.05745        2.09688
H         -4.41460        2.73389        2.62254
C         -0.73958       -4.52746        0.57420
C         -0.97199       -3.80435        1.77200
C         -0.83683       -2.42619        1.74529
C         -0.55246       -1.76231        0.57933
C         -0.45066       -2.45274       -0.60015
C         -0.57451       -3.82959       -0.64831
O         -0.63288       -5.94336        0.60740
C         -1.31914       -4.49921        3.09805
H         -0.94625       -1.85242        2.64686
H         -0.26518       -1.88879       -1.49654
C         -0.49111       -4.53646       -2.01016
C          3.95757        1.14359       -0.69453
C          3.06387        2.13078       -0.20419
C          1.78547        1.73724        0.15535
C          1.41501        0.41877        0.10751
C          2.30489       -0.55167       -0.26816
C          3.59774       -0.22787       -0.64112
O          5.19663        1.53277       -1.26944
C          3.44913        3.61378       -0.08890
H          1.05064        2.45829        0.47083
H          1.96968       -1.57321       -0.28035
C          4.56476       -1.36078       -1.01924
C         -0.02210       -4.84556        3.84480
C         -2.17156       -3.57295        3.99497
C         -2.14681       -5.77437        2.85451
C         -1.31467       -5.83699       -2.01470
C         -1.06905       -3.63553       -3.12597
C          0.97990       -4.83704       -2.33607
C          0.69417       -6.41799        0.79835
H          0.60042       -5.51957        3.26132
H          0.55968       -3.94590        4.04427
H         -0.23717       -5.32723        4.79833
H         -1.59962       -2.71710        4.35050
H         -3.04266       -3.20400        3.45417
H         -2.52646       -4.10753        4.87584
H         -2.44818       -6.23199        3.79645
H         -3.04694       -5.54477        2.28531
H         -1.57909       -6.51491        2.29647
H         -2.35013       -5.63580       -1.74205
H         -1.30749       -6.30211       -3.00012
H         -0.91891       -6.56078       -1.30693
H         -0.44466       -2.76164       -3.30477
H         -1.13376       -4.17926       -4.06807
H         -2.07056       -3.29289       -2.86756
H          1.55973       -3.91555       -2.38046
H          1.42989       -5.47474       -1.57877
H          1.07187       -5.33943       -3.29861
H          1.38339       -5.58188        0.92381
H          0.72973       -7.05443        1.68244
H          0.99891       -7.01339       -0.06205
C          5.13637        1.76813       -2.67064
C          4.93974        3.77058        0.26201
C          3.13909        4.32606       -1.41422
C          2.64500        4.30138        1.03852
C          6.01955       -0.98709       -0.68254
C          4.23635       -2.64669       -0.22535
C          4.42579       -1.66376       -2.51898
H          5.17584        3.23506        1.18095
H          5.57626        3.37642       -0.52638
H          5.20091        4.81904        0.40336
H          2.08353        4.23035       -1.66609
H          3.37684        5.38767       -1.35196
H          3.71297        3.90162       -2.23405
H          2.73858        3.74986        1.97369
H          3.00777        5.31461        1.20979
H          1.58759        4.37924        0.79070
H          6.69582       -1.81497       -0.89408
H          6.35528       -0.13205       -1.26359
H          6.11540       -0.73170        0.37225
H          4.99517       -3.41025       -0.39500
H          4.20010       -2.44294        0.84449
H          3.28125       -3.07521       -0.52510
H          3.40341       -1.95439       -2.75950
H          5.08751       -2.47672       -2.81666
H          4.67047       -0.79262       -3.12180
H          4.11678        1.63497       -3.03476
H          5.47064        2.78320       -2.88457
H          5.80053        1.07623       -3.18811
