72
-98.09895056
Fe        -0.00337        2.77499       -0.02566
P          1.86571       -0.10235        0.05051
P         -1.85756       -0.08504       -0.06732
C          1.43528        1.56177        0.68783
C          0.45647        1.85777        1.71987
C          0.42427        3.29777        1.91062
C          1.40697        3.89485        1.02512
C          2.02293        2.82228        0.26310
C         -1.41883        1.56974       -0.72522
C         -2.00622        2.83810       -0.32334
C         -1.36635        3.89398       -1.09032
C         -0.40320        3.28050       -1.98636
C         -0.43573        1.84593       -1.75967
C          3.28494       -0.75392        1.04408
C          4.49170       -0.19595        0.27145
C          2.72621        0.04466       -1.58639
C          4.21877       -0.17805       -1.25709
C         -3.27413       -0.74838       -1.05791
C         -4.48432       -0.19807       -0.28503
C         -2.71918        0.08190        1.56720
C         -4.20833       -0.16691        1.24272
H         -0.14131        1.12674        2.26455
H         -0.20341        3.83403        2.62621
H          1.64001        4.95868        0.94432
H          2.81558        2.93527       -0.47947
H         -2.79868        2.96803        0.41694
H          0.15786        1.10195       -2.29176
Cl         1.54036       -3.13742        0.21713
Cl        -1.61594       -3.08773        0.04191
Pd        -0.00114       -1.50675       -0.02273
H          3.26361       -1.84676        0.96817
C          3.22111       -0.33145        2.50637
H          2.54940        1.06675       -1.94116
C          2.17004       -0.96770       -2.58120
H          5.39900       -0.77407        0.50617
H          4.69241        0.82576        0.62409
H          4.84062        0.57995       -1.75597
H          4.53338       -1.13911       -1.68573
H         -1.59375        4.96049       -1.02618
H          0.22847        3.80266       -2.70852
H          4.18161       -0.55761        2.99002
H          2.37640       -1.97937       -2.20629
H         -3.24351       -1.84104       -0.98162
C         -3.21673       -0.32731       -2.52118
H         -2.55559        1.11367        1.89970
C         -2.15220       -0.90066        2.58565
H         -5.38604       -0.78731       -0.51340
H         -4.69694        0.81910       -0.64368
H         -4.84113        0.58391        1.73871
H         -4.50629       -1.13038        1.67782
H         -4.17813       -0.55761       -3.00106
H         -1.05841       -0.82381        2.59778
C          2.08581       -1.00291        3.26127
H          2.03060       -0.67524        4.30178
H          1.12542       -0.78493        2.79540
H          2.19907       -2.08863        3.26109
C          2.72971       -0.79471       -3.98525
H          2.50395        0.19838       -4.37844
H          3.81526       -0.90602       -3.99814
H          2.31676       -1.52638       -4.68340
C         -2.08199       -0.99539       -3.27998
H         -2.19126       -2.08154       -3.27841
H         -2.03276       -0.66871       -4.32111
H         -1.12013       -0.77306       -2.81914
C         -2.70345       -0.69113        3.98788
H         -2.47822        0.31290        4.35257
H         -3.78860       -0.80510        4.01019
H         -2.28405       -1.40245        4.70300
H          3.12193        0.76081        2.55603
H          1.07593       -0.89406       -2.60367
H         -3.12200        0.76526       -2.57245
H         -2.35762       -1.92298        2.24095
