87
-129.18782832
P         -1.63874       -0.36247       -0.24946
P          1.56003        0.44965        0.07542
C         -1.36642        0.96407       -1.43518
C          1.44756       -0.58031       -1.40242
C         -0.33891        0.88232       -2.36860
C         -0.13785        1.96008       -3.25353
C         -0.97303        3.06201       -3.17777
C         -1.98763        3.12272       -2.24661
C         -2.17970        2.06924       -1.37486
C          2.25480       -1.69148       -1.45017
C          2.17465       -2.56941       -2.51282
C          1.26935       -2.33354       -3.52433
C          0.44004       -1.22548       -3.49587
C          0.53581       -0.31914       -2.42174
Cl         1.03484        0.42982        3.31213
Cl        -1.50294       -1.56163        2.72410
H         -2.62535        3.98997       -2.19555
H         -2.97023        2.10927       -0.64410
H          2.95113       -1.87753       -0.64948
H          2.80878       -3.44023       -2.54451
H         -0.81610        3.88317       -3.85646
H          1.19247       -3.02177       -4.34897
C         -1.71243       -4.43019       -2.26829
C         -0.87742       -4.22831       -1.17789
C         -0.88977       -2.98648       -0.55498
C         -1.69052       -1.97468       -1.03137
C         -2.50961       -2.17924       -2.11674
C         -2.52481       -3.41559       -2.73557
H         -1.72029       -5.39265       -2.75080
C         -0.00820       -5.32069       -0.66300
H         -0.26315       -2.81233        0.30332
H         -3.12232       -1.36909       -2.48012
H         -3.16533       -3.58427       -3.58566
C         -5.42632        0.43368        2.15430
C         -5.38608       -0.62614        1.26998
C         -4.24133       -0.86706        0.53413
C         -3.14756       -0.04782        0.68664
C         -3.18432        1.00674        1.56993
C         -4.32899        1.26864        2.31273
H         -6.31329        0.61722        2.73645
H         -6.24352       -1.26935        1.15805
H         -4.19206       -1.69801       -0.15005
H         -2.31434        1.63017        1.69376
C         -4.35137        2.38857        3.29232
C          5.36088       -0.55286        2.37707
C          5.26717        0.64014        1.68802
C          4.11178        0.94674        0.99416
C          3.06171        0.05858        0.99097
C          3.15325       -1.13072        1.67713
C          4.30285       -1.45125        2.38844
H          6.26046       -0.79443        2.91713
H          6.09280        1.33279        1.69203
H          4.02279        1.87689        0.45725
H          2.32102       -1.81528        1.67405
C          4.39650       -2.74381        3.12012
C          1.26301        4.91294       -0.71537
C          0.51622        4.34428        0.29739
C          0.61318        2.98850        0.54548
C          1.44482        2.21338       -0.22897
C          2.20069        2.77766       -1.22992
C          2.11937        4.14181       -1.48867
H          1.18958        5.96888       -0.91273
H         -0.13951        4.95565        0.89538
H          0.05424        2.53340        1.34672
H          2.84905        2.15220       -1.82115
C          2.92464        4.76816       -2.57230
Pd        -0.11790       -0.26823        1.52152
C          0.94925        1.93836       -4.27135
C         -0.53971       -1.02672       -4.60009
H          1.70954        1.19527       -4.02832
H          0.55172        1.70480       -5.25967
H          1.44509        2.90770       -4.33261
H         -1.29159       -0.28115       -4.33957
H         -0.03804       -0.69792       -5.51096
H         -1.06463       -1.95627       -4.82453
H          0.26795       -6.01355       -1.45912
H          0.91376       -4.91992       -0.23876
H         -0.51922       -5.88730        0.11657
H         -3.75005        3.22855        2.94132
H         -5.36706        2.75223        3.45412
H         -3.95041        2.06705        4.25454
H          3.45328       -2.97987        3.61508
H          4.63212       -3.56037        2.43613
H          5.17275       -2.71051        3.88582
H          2.27753        5.22684       -3.32141
H          3.57797        5.54425       -2.17105
H          3.55264        4.03290       -3.07744
