171
-217.84635893
P         -1.61305        0.41441       -0.35078
P          1.60782       -0.39705       -0.37132
C         -0.90893        1.37294       -1.69670
C          0.88478       -1.33004       -1.72513
C         -0.11034        0.76803       -2.66038
C          0.50564        1.57642       -3.63504
C          0.26538        2.94024       -3.63419
C         -0.55623        3.51649       -2.68883
C         -1.13320        2.72795       -1.71266
C          1.10353       -2.68552       -1.76334
C          0.51708       -3.45692       -2.74752
C         -0.30750       -2.86294       -3.67917
C         -0.54253       -1.49836       -3.65738
C          0.08195       -0.70744       -2.67380
Cl         1.63830        0.30671        2.79369
Cl        -1.56173       -0.37447        2.85247
C         -1.43671       -0.89323       -4.68265
C          1.39671        0.99103       -4.67434
H         -0.74229        4.57792       -2.70668
H         -1.76263        3.17175       -0.95825
H          1.73607       -3.14317       -1.01981
H          0.69866       -4.51869       -2.78270
H          0.73133        3.55278       -4.38761
H         -0.78018       -3.46199       -4.43920
C         -3.84782       -3.33676       -1.52126
C         -2.86129       -3.41877       -0.54586
C         -2.16232       -2.26009       -0.23625
C         -2.45876       -1.07651       -0.86496
C         -3.44192       -1.00896       -1.82084
C         -4.15941       -2.14744       -2.16955
H         -4.40401       -4.21820       -1.77859
H         -1.38671       -2.27463        0.50967
H         -3.64909       -0.05786       -2.28117
C         -4.36004        2.91594        2.25216
C         -4.91029        1.90967        1.46736
C         -4.05150        1.16694        0.66750
C         -2.70598        1.43648        0.64881
C         -2.18075        2.44064        1.42366
C         -2.99854        3.19680        2.25200
H         -5.01420        3.48331        2.88704
H         -4.42401        0.35908        0.06366
H         -1.11890        2.62028        1.40241
C          4.35286       -2.97775        2.15377
C          2.98462       -3.22124        2.18778
C          2.16726       -2.44252        1.37990
C          2.69983       -1.44902        0.59659
C          4.05206       -1.21504        0.58295
C          4.91035       -1.98412        1.35811
H          5.00719       -3.56496        2.77017
H          1.10071       -2.59312        1.38391
H          4.43091       -0.41448       -0.02653
C          3.85704        3.35185       -1.52559
C          4.15763        2.16619       -2.18580
C          3.43716        1.02842       -1.84076
C          2.46199        1.09273       -0.87648
C          2.17546        2.27330       -0.23747
C          2.87730        3.43111       -0.54316
H          4.41645        4.23235       -1.77913
H          3.63482        0.08063       -2.31192
H          1.40399        2.28771        0.51264
Pd         0.00181        0.03201        1.28054
C         -1.18242       -5.26150       -0.39757
C         -2.51075       -4.73324        0.16627
C         -3.60181       -5.80094       -0.04542
C         -2.36971       -4.48773        1.68257
H         -0.38834       -4.52771       -0.26748
H         -0.88109       -6.18206        0.10192
H         -1.27342       -5.46866       -1.46351
H         -3.67941       -6.08552       -1.09435
H         -3.37339       -6.70426        0.52016
H         -4.57355       -5.43615        0.28713
H         -3.28203       -4.05104        2.08808
H         -2.17797       -5.42091        2.21189
H         -1.54678       -3.81101        1.90651
C         -6.62853       -2.43115       -2.46363
C         -5.30782       -2.11256       -3.18814
C         -5.05761       -3.16046       -4.28929
C         -5.43706       -0.72763       -3.85209
H         -6.81763       -1.70705       -1.67159
H         -7.47032       -2.40276       -3.15527
H         -6.60079       -3.42154       -2.01049
H         -5.03145       -4.16963       -3.88041
H         -5.84521       -3.12924       -5.04199
H         -4.10735       -2.97866       -4.78943
H         -6.24129       -0.72512       -4.58770
H         -5.66498        0.04197       -3.11490
H         -4.51761       -0.45093       -4.36682
C         -6.82029        0.49798        0.55249
C         -6.41798        1.62568        1.52426
C         -7.19317        2.89882        1.13816
C         -6.79736        1.19735        2.95335
H         -7.89411        0.31609        0.59354
H         -6.56865        0.75866       -0.47541
H         -6.31898       -0.43618        0.80536
H         -8.26804        2.71876        1.14788
H         -6.98665        3.71473        1.82969
H         -6.91534        3.22939        0.13748
H         -7.86051        0.96797        3.02319
H         -6.23936        0.30892        3.24853
H         -6.57737        1.98445        3.67363
C         -1.63874        5.30419        2.28750
C         -2.36515        4.26258        3.15710
C         -1.35491        3.58140        4.10044
C         -3.42189        4.98856        4.01096
H         -2.33005        5.77318        1.58762
H         -1.19558        6.08708        2.90271
H         -0.83932        4.84322        1.71066
H         -1.84709        2.82045        4.70557
H         -0.55641        3.09432        3.54202
H         -0.89715        4.30639        4.77301
H         -3.94717        4.29015        4.66213
H         -2.95506        5.74227        4.64499
H         -4.15431        5.49417        3.38191
C          1.59177       -5.30507        2.25670
C          2.34588       -4.26970        3.10923
C          1.35930       -3.56541        4.06100
C          3.40150       -5.00632        3.95534
H          0.79611       -4.83322        1.68377
H          2.26698       -5.79314        1.55415
H          1.13988       -6.07390        2.88319
H          0.55992       -3.07104        3.51042
H          0.90055       -4.27773        4.74630
H          1.87142       -2.80685        4.65241
H          3.95012       -4.31064        4.59000
H          2.93002       -5.74351        4.60515
H          4.11422       -5.53353        3.32143
C          7.15428       -3.03515        0.96140
C          6.42650       -1.74322        1.37630
C          6.85629       -1.33600        2.79729
C          6.83469       -0.62044        0.40135
H          6.84060       -3.35045       -0.03360
H          8.23376       -2.88599        0.94355
H          6.94270       -3.84977        1.65295
H          7.92701       -1.13709        2.83960
H          6.33186       -0.43437        3.11324
H          6.63381       -2.12175        3.51828
H          7.91390       -0.46881        0.41525
H          6.54915       -0.86671       -0.62122
H          6.36646        0.32541        0.67336
C          5.05408        3.19859       -4.29775
C          5.29916        2.13318       -3.21225
C          5.40910        0.75627       -3.89610
C          6.62744        2.42770       -2.49155
H          5.83686        3.16872       -5.05552
H          4.09903        3.03406       -4.79470
H          5.04175        4.20249       -3.87552
H          4.48266        0.49591       -4.40687
H          6.20729        0.75590       -4.63827
H          5.63534       -0.02571       -3.17156
H          7.46464        2.40111       -3.18880
H          6.61227        3.41153       -2.02373
H          6.81405        1.69017       -1.71141
C          3.62599        5.80921       -0.03586
C          2.53638        4.74130        0.18166
C          2.41189        4.48585        1.69777
C          1.20179        5.27469       -0.36229
H          4.60093        5.44183        0.28421
H          3.69246        6.09931       -1.08405
H          3.40452        6.70963        0.53707
H          1.58858        3.81098        1.92632
H          3.32710        4.04298        2.08985
H          2.22969        5.41612        2.23555
H          0.40800        4.54192       -0.22469
H          0.90876        6.19335        0.14558
H          1.27913        5.48667       -1.42837
H         -0.91307       -0.76720       -5.63116
H          0.87248        0.88982       -5.62551
H         -1.80305        0.08407       -4.36545
H         -2.30507       -1.52705       -4.86322
H          1.75847        0.00484       -4.38025
H          2.26807        1.62482       -4.83984
