59
-75.79799704
Cl         1.69220        0.57275        2.30110
P          1.55874       -0.12610       -0.82215
P         -1.61389        0.18409       -0.77740
C          0.60862       -0.30344       -2.40152
H          1.23938        0.01090       -3.23750
H          0.43948       -1.37447       -2.53368
C         -0.70128        0.44170       -2.36382
H         -1.35942        0.15759       -3.19011
H         -0.54096        1.51832       -2.45088
C          2.52943       -1.68047       -0.53815
H          2.47276       -2.25322       -1.47182
C          2.94574        1.10783       -0.81634
H          2.92555        1.56955        0.17876
C         -2.45360       -1.45934       -0.60273
H         -2.33183       -1.74761        0.44898
C         -3.09677        1.29632       -0.75449
H         -3.17373        1.70397       -1.77002
C          3.96392       -1.17628       -0.30461
H          4.14232       -1.10653        0.77713
H          4.69572       -1.90830       -0.67844
C          4.19205        0.21597       -0.95236
H          4.42369        0.09238       -2.01944
H          5.07009        0.71516       -0.51448
C         -3.92714       -1.12263       -0.88684
H         -4.11947       -1.25158       -1.96098
H         -4.59001       -1.83939       -0.37836
C         -4.26474        0.33433       -0.46924
H         -4.48855        0.36076        0.60604
H         -5.18081        0.68424       -0.96883
C          1.95386       -2.49598        0.61372
H          0.87992       -2.65413        0.44403
H          2.01410       -1.89964        1.53369
C          2.83304        2.19026       -1.88556
H          3.80796        2.68482       -1.99792
H          2.63921        1.71721       -2.85607
C         -1.86221       -2.53449       -1.50485
H         -1.93953       -2.20489       -2.54893
H         -0.78693       -2.62041       -1.30183
C         -2.97500        2.43193        0.25486
H         -3.91653        2.99847        0.27078
H         -2.88184        2.00311        1.26037
C          2.65458       -3.83227        0.80639
H          2.22478       -4.40473        1.63154
H          3.71618       -3.69637        1.02035
H          2.58357       -4.44730       -0.09273
C          1.76707        3.22536       -1.56769
H          1.99456        3.75476       -0.64032
H          0.79377        2.75690       -1.43277
H          1.66812        3.97259       -2.35836
C         -2.52738       -3.89131       -1.32910
H         -2.07644       -4.65455       -1.96752
H         -3.59034       -3.84771       -1.57287
H         -2.44790       -4.23752       -0.29682
C         -1.80778        3.36453       -0.02324
H         -0.85747        2.83472        0.04733
H         -1.86999        3.78949       -1.02678
H         -1.76834        4.19474        0.68562
Cl        -1.63475        0.33090        2.36978
Pd         0.01762        0.20265        0.85920
