111
-148.54722567
P         -2.46868        2.21257       -0.35230
P         -0.03491        0.37224        0.47505
C         -1.88403        2.21400        1.36230
C         -0.81374        1.42155        1.71479
C         -2.63235        3.95187       -0.96538
C         -1.64716        4.24131       -2.07653
C         -2.48419        3.02088        2.30786
H         -3.30487        3.65776        2.02127
C         -2.02165        3.01527        3.61240
H         -2.49158        3.64287        4.35194
C         -0.95830        2.20750        3.96676
H         -0.59945        2.20083        4.98283
C         -0.35166        1.40857        3.01409
H          0.47844        0.77225        3.27602
Pd        -1.19282        0.67591       -1.51420
Cl        -2.07610        1.37278       -3.44986
Cl         0.11886       -0.89768       -2.43354
C         -4.11577        4.05397       -1.38429
C         -4.20264        1.61538       -0.60285
H         -0.62047        4.04266       -1.75941
H         -1.85050        3.61432       -2.94515
H         -1.70579        5.28218       -2.40352
H         -4.19434        4.65416       -2.30212
H         -4.68250        4.60932       -0.62273
H         -4.13142        0.62201       -1.06659
C         -4.76630        2.65634       -1.59145
C         -4.96372        1.54220        0.70383
H         -2.42405        4.59786       -0.10145
H         -5.85935        2.71542       -1.48270
H         -4.58614        2.32177       -2.62397
H         -5.96523        1.12908        0.56183
H         -4.44142        0.92326        1.43675
H         -5.08000        2.53658        1.13757
C         -1.13817       -3.98785        1.17935
C          0.20588       -3.65379        0.87390
C          0.52563       -2.31858        0.69880
C         -0.43904       -1.34766        0.75951
C         -1.75875       -1.67494        0.93692
C         -2.14820       -2.99418        1.10542
O         -1.46209       -5.30703        1.59399
C          1.31145       -4.71331        0.74870
H          1.53908       -2.01860        0.50135
H         -2.48480       -0.87973        0.93518
C         -3.64551       -3.32453        1.20693
C          4.42423        1.17074       -0.04895
C          3.51022        1.52831       -1.07216
C          2.16158        1.30344       -0.85401
C          1.72037        0.67706        0.28246
C          2.60989        0.23650        1.22829
C          3.97257        0.43431        1.07580
O          5.78303        1.57551       -0.13492
C          3.95360        2.15564       -2.40339
H          1.43213        1.61186       -1.58247
H          2.22334       -0.27297        2.09354
C          4.93697       -0.12930        2.13181
C          0.74879       -6.03441        0.19353
C          2.40889       -4.24276       -0.23314
C          1.94960       -4.94828        2.12592
C         -4.09706       -3.19034        2.66879
C         -4.47266       -2.35019        0.33825
C         -3.94203       -4.74336        0.68762
C         -1.41100       -5.49694        3.00219
H          0.02266       -6.47256        0.87404
H          0.25327       -5.86813       -0.76239
H          1.54225       -6.76584        0.04238
H          2.97211       -3.39979        0.16372
H          3.12398       -5.04195       -0.42658
H          1.97312       -3.94501       -1.18653
H          2.75849       -5.67570        2.06266
H          2.35933       -4.02073        2.52468
H          1.21842       -5.32069        2.83953
H         -3.92776       -2.17716        3.03281
H         -5.15876       -3.41316        2.77169
H         -3.54583       -3.87019        3.31460
H         -4.45037       -1.33875        0.73814
H         -4.09311       -2.32373       -0.68294
H         -5.51796       -2.65579        0.30002
H         -3.57895       -4.86133       -0.33279
H         -3.46078       -5.50014        1.30181
H         -5.01249       -4.94719        0.69287
H         -0.72909       -6.31494        3.23436
H         -1.06921       -4.58676        3.49661
H         -2.40076       -5.76148        3.37366
C          6.04453        2.85337        0.43143
C          3.95260        3.68589       -2.27089
C          5.35166        1.65793       -2.81279
C          2.98434        1.75751       -3.54105
C          4.35071       -1.39985        2.78809
C          6.27874       -0.53508        1.49493
C          5.16684        0.92517        3.22474
H          2.95735        4.04972       -2.01634
H          4.63437        4.01453       -1.49010
H          4.25629        4.15878       -3.20448
H          6.10903        1.96845       -2.09747
H          5.37015        0.56996       -2.86737
H          5.63811        2.05167       -3.78765
H          2.00450        2.21614       -3.41716
H          3.36800        2.08172       -4.50803
H          2.85328        0.67636       -3.57800
H          4.06966       -2.13093        2.03109
H          5.08183       -1.86701        3.44753
H          3.47348       -1.17490        3.39280
H          6.93844       -0.99515        2.23019
H          6.11957       -1.24942        0.68780
H          6.79796        0.32575        1.08096
H          5.83747        0.54803        3.99642
H          4.22509        1.19913        3.69979
H          5.60518        1.83077        2.81244
H          5.13225        3.27664        0.85359
H          6.79746        2.75836        1.21371
H          6.43417        3.52167       -0.33619
