171
-217.83674829
P         -1.62100        0.81429        0.33454
P          1.41299       -0.32204       -0.43473
C         -0.96364        1.78058       -1.04894
C          0.31993       -1.06996       -1.66416
C         -0.43734        1.23377       -2.21386
C          0.15740        2.09126       -3.15837
C          0.16036        3.45625       -2.92667
C         -0.37966        3.98367       -1.77349
C         -0.92767        3.13746       -0.82874
C          0.26898       -2.43253       -1.83459
C         -0.55860       -2.98692       -2.79065
C         -1.35003       -2.16820       -3.56872
C         -1.34337       -0.79455       -3.39225
C         -0.47869       -0.23299       -2.43310
Cl         2.43356        1.47664        2.20714
Cl        -0.48849        1.14297        3.42543
C         -2.23770        0.06779       -4.21369
C          0.81417        1.56771       -4.38774
H         -0.36250        5.04763       -1.60249
H         -1.32544        3.53279        0.09440
H          0.86343       -3.07180       -1.20665
H         -0.59143       -4.05623       -2.92179
H          0.60290        4.10719       -3.66166
H         -1.98996       -2.59477       -4.32224
C         -2.93035       -3.51566       -0.00600
C         -1.85332       -3.21409        0.81819
C         -1.43422       -1.89165        0.87684
C         -2.07470       -0.91891        0.14382
C         -3.14790       -1.23493       -0.65299
C         -3.59564       -2.54756       -0.74709
H         -3.28378       -4.52802       -0.05830
H         -0.61790       -1.61868        1.52172
H         -3.64317       -0.44385       -1.18828
C         -5.36912        2.95062        1.71853
C         -5.16065        2.74389        0.35970
C         -3.99465        2.09478       -0.02498
C         -3.08456        1.67661        0.91432
C         -3.30610        1.89109        2.25018
C         -4.45791        2.53453        2.68178
H         -6.26113        3.45236        2.04332
H         -3.78625        1.92310       -1.06829
H         -2.55719        1.56748        2.94889
C          3.88804       -3.59850        1.55017
C          3.75782       -3.58125        0.16796
C          3.01631       -2.55480       -0.40366
C          2.39440       -1.61006        0.37762
C          2.54879       -1.64372        1.74285
C          3.29803       -2.63549        2.35795
H          4.47197       -4.37907        2.00024
H          2.91481       -2.49308       -1.47231
H          2.10625       -0.87475        2.34743
C          4.32567        2.40498       -2.58614
C          4.18683        1.09001       -3.01486
C          3.28840        0.27848       -2.33400
C          2.57062        0.76497       -1.26973
C          2.71881        2.06726       -0.86360
C          3.60209        2.91677       -1.51634
H          5.02046        3.05175       -3.08791
H          3.14309       -0.74197       -2.64267
H          2.14271        2.41606       -0.02590
Pd         0.44691        0.78174        1.41952
C         -1.26371       -3.83005        3.17329
C         -1.17072       -4.27106        1.70039
C          0.30518       -4.40910        1.29294
C         -1.84108       -5.65173        1.56387
H         -0.80752       -4.56875        3.83194
H         -0.75770       -2.87940        3.33528
H         -2.30440       -3.70811        3.47275
H          0.82131       -3.45553        1.37554
H          0.82372       -5.12544        1.92991
H          0.39142       -4.75268        0.26280
H         -2.89033       -5.60918        1.85554
H         -1.77978       -6.01822        0.53928
H         -1.34998       -6.38404        2.20465
C         -5.93821       -3.41826       -0.61392
C         -4.83217       -2.93637       -1.57033
C         -4.47005       -4.06593       -2.55239
C         -5.37305       -1.74211       -2.37883
H         -6.19849       -2.63528        0.09820
H         -6.83959       -3.68863       -1.16367
H         -5.61685       -4.29170       -0.04750
H         -3.66822       -3.75430       -3.21962
H         -4.13911       -4.96089       -2.02728
H         -5.32922       -4.33980       -3.16448
H         -5.69754       -0.93842       -1.71886
H         -4.61274       -1.35088       -3.05297
H         -6.23108       -2.03830       -2.98211
C         -6.58855        2.01129       -1.56936
C         -6.14738        3.21628       -0.71725
C         -5.45154        4.25646       -1.61452
C         -7.40242        3.86094       -0.09839
H         -5.74265        1.56258       -2.08866
H         -7.04509        1.24432       -0.94397
H         -7.31748        2.31147       -2.32192
H         -6.12896        4.62273       -2.38569
H         -5.11623        5.10988       -1.02548
H         -4.57987        3.83034       -2.11030
H         -7.14295        4.74158        0.48884
H         -8.09759        4.17768       -0.87585
H         -7.92705        3.15625        0.54662
C         -4.85791        4.31552        4.40150
C         -4.73827        2.79835        4.16826
C         -3.60778        2.25510        5.06475
C         -6.05315        2.10457        4.56895
H         -3.94163        4.82369        4.10160
H         -5.67995        4.74131        3.82735
H         -5.03721        4.53553        5.45376
H         -3.49291        1.17835        4.94234
H         -2.65644        2.73183        4.82967
H         -3.82124        2.44673        6.11614
H         -5.99219        1.03158        4.38792
H         -6.26808        2.25697        5.62649
H         -6.89621        2.49268        3.99861
C          3.92950       -6.05712       -0.20226
C          4.42124       -4.67696       -0.67831
C          5.94890       -4.58275       -0.51826
C          4.07319       -4.53205       -2.17327
H          2.84470       -6.12687       -0.28146
H          4.36351       -6.85464       -0.80509
H          4.20177       -6.24101        0.83621
H          6.30935       -3.60552       -0.83931
H          6.24620       -4.72406        0.52028
H          6.45194       -5.34204       -1.11679
H          2.99605       -4.58398       -2.33172
H          4.43638       -3.58581       -2.57263
H          4.53167       -5.33081       -2.75609
C          4.14354       -1.30080        4.30220
C          3.45570       -2.61427        3.88480
C          4.30655       -3.79627        4.38668
C          2.06590       -2.69990        4.54186
H          4.28883       -1.26181        5.38149
H          5.11916       -1.20912        3.82555
H          3.54961       -0.43395        4.01484
H          3.84925       -4.74907        4.12029
H          5.31096       -3.76373        3.96498
H          4.40391       -3.76907        5.47192
H          2.14714       -2.69513        5.62856
H          1.43768       -1.85828        4.25245
H          1.55861       -3.61753        4.24616
C          5.95669       -0.58176       -3.58188
C          5.02091        0.49591       -4.15929
C          5.87657        1.56986       -4.85806
C          4.09019       -0.13922       -5.21022
H          6.57081       -1.02749       -4.36413
H          6.62147       -0.15298       -2.83226
H          5.38905       -1.37983       -3.10517
H          6.43970        1.13750       -5.68509
H          5.25121        2.36536       -5.26313
H          6.59522        2.01130       -4.16793
H          4.66627       -0.56882       -6.02962
H          3.48466       -0.93564       -4.77963
H          3.41644        0.60621       -5.63100
C          3.50068        5.32079       -2.23357
C          3.81565        4.36871       -1.06573
C          5.28010        4.55009       -0.62707
C          2.90272        4.73449        0.12178
H          2.46949        5.19830       -2.56200
H          3.63758        6.36041       -1.93654
H          4.14918        5.13022       -3.08776
H          5.52396        3.86738        0.18670
H          5.96702        4.35037       -1.44864
H          5.46071        5.56742       -0.28039
H          1.85164        4.62237       -0.14200
H          3.11044        4.10333        0.98558
H          3.05821        5.76952        0.42535
H         -2.62050        0.90529       -3.62805
H          0.24364        1.83112       -5.27942
H         -3.09488       -0.49288       -4.58877
H         -1.70630        0.47248       -5.07552
H          0.91680        0.48226       -4.35733
H          1.81451        1.98991       -4.49468
