171
-217.84339413
P         -1.62597        0.38368       -0.42181
P          1.62931       -0.40716       -0.29215
C         -0.86885        1.28912       -1.77115
C          0.94147       -1.41330       -1.61036
C         -0.03982        0.63378       -2.67416
C          0.60534        1.39093       -3.67095
C          0.36533        2.75277       -3.74828
C         -0.48637        3.37701       -2.86140
C         -1.09533        2.64016       -1.86446
C          1.16065       -2.76913       -1.57316
C          0.58613       -3.59337       -2.52011
C         -0.22423       -3.04986       -3.49392
C         -0.45874       -1.68577       -3.54844
C          0.15246       -0.84157       -2.60205
Cl         1.45534        0.30140        2.89288
Cl        -1.77723       -0.62328        2.60322
C         -1.33597       -1.13419       -4.61654
C          1.53132        0.75566       -4.64853
H         -0.67218        4.43558       -2.94169
H         -1.75176        3.11954       -1.15597
H          1.78540       -3.18695       -0.80072
H          0.76558       -4.65575       -2.49238
H          0.85583        3.32570       -4.51713
H         -0.68599       -3.68911       -4.22743
C         -4.00250       -3.23515       -1.72340
C         -2.95174       -3.40486       -0.83034
C         -2.23249       -2.27857       -0.45175
C         -2.54558       -1.04829       -0.97221
C         -3.57640       -0.89830       -1.86701
C         -4.34084       -1.99368       -2.25001
H         -4.57787       -4.09801       -2.00097
H         -1.42566       -2.34854        0.25708
H         -3.79355        0.08299       -2.25534
C         -4.20468        2.96108        2.28656
C         -4.80571        1.93831        1.56190
C         -4.00614        1.19117        0.70736
C         -2.66481        1.45712        0.58844
C         -2.08825        2.47183        1.31242
C         -2.84687        3.24080        2.18475
H         -4.80590        3.54548        2.95581
H         -4.42998        0.37808        0.14478
H         -1.02978        2.64773        1.21894
C          4.36789       -2.79427        2.42465
C          3.02099       -3.13292        2.36747
C          2.20731       -2.41250        1.50369
C          2.72052       -1.38437        0.75297
C          4.05032       -1.05404        0.83277
C          4.90612       -1.76108        1.66734
H          5.01927       -3.33739        3.08306
H          1.15702       -2.63992        1.43166
H          4.41266       -0.22790        0.24774
C          3.89634        3.28386       -1.58277
C          2.88759        3.41447       -0.63578
C          2.17520        2.27413       -0.28889
C          2.48069        1.06224       -0.85639
C          3.48600        0.94706       -1.78455
C          4.21761        2.06517       -2.16817
H          4.46301        4.15023       -1.86700
H          1.38282        2.32456        0.43775
H          3.70102       -0.02573       -2.19330
Pd        -0.06328       -0.01047        1.27595
C         -3.83602       -5.26438        0.59346
C         -2.64435       -4.79598       -0.26020
C         -1.38348       -4.77672        0.62515
C         -2.40988       -5.78649       -1.41604
H         -3.64410       -6.24568        1.02706
H         -4.02281       -4.56504        1.40826
H         -4.74518       -5.33332       -0.00292
H         -1.15754       -5.77532        0.99871
H         -0.51914       -4.42868        0.06078
H         -1.51855       -4.12569        1.48855
H         -2.14946       -6.77420       -1.03601
H         -3.29908       -5.89373       -2.03580
H         -1.59622       -5.44593       -2.05524
C         -6.31875       -3.10456       -3.40921
C         -5.53731       -1.79410       -3.19305
C         -5.03902       -1.29191       -4.55925
C         -6.49533       -0.75462       -2.58155
H         -5.69051       -3.86513       -3.87245
H         -6.69752       -3.49510       -2.46481
H         -7.17356       -2.94088       -4.06536
H         -5.87427       -1.10941       -5.23521
H         -4.48145       -0.36139       -4.45874
H         -4.38710       -2.02961       -5.02544
H         -6.01299        0.21721       -2.48706
H         -7.38076       -0.62538       -3.20373
H         -6.82197       -1.06816       -1.59013
C         -6.98962        1.91201        0.33996
C         -6.29979        1.60425        1.68013
C         -6.98417        2.42848        2.78772
C         -6.46482        0.10938        2.01814
H         -6.54965        1.33013       -0.46812
H         -8.05294        1.67694        0.38343
H         -6.88548        2.96669        0.08589
H         -6.94080        3.49520        2.56899
H         -8.03548        2.15559        2.87873
H         -6.51177        2.25291        3.75409
H         -5.93660       -0.13641        2.93911
H         -7.51568       -0.14642        2.15232
H         -6.06919       -0.52582        1.22669
C         -3.14465        5.04288        3.96124
C         -2.15316        4.31677        3.03221
C         -1.50457        5.35688        2.10244
C         -1.06972        3.64816        3.90062
H         -2.63345        5.80091        4.55460
H         -3.92468        5.54378        3.38815
H         -3.61606        4.34559        4.65355
H         -0.76010        4.89371        1.45857
H         -2.25367        5.82560        1.46458
H         -1.00883        6.14005        2.67577
H         -0.31686        3.15464        3.28761
H         -0.56178        4.38167        4.52628
H         -1.51090        2.89411        4.55195
C          2.00001       -5.41384        2.27862
C          2.41052       -4.26094        3.21051
C          1.17165       -3.72911        3.95916
C          3.40980       -4.79811        4.25307
H          1.54070       -6.22729        2.83994
H          1.28548       -5.07498        1.53039
H          2.86753       -5.81190        1.75257
H          1.43550       -2.87118        4.57711
H          0.39023       -3.41384        3.26941
H          0.74842       -4.49600        4.60746
H          2.94735       -5.56781        4.87089
H          4.28007       -5.24420        3.77229
H          3.74961       -4.00127        4.91445
C          7.24454       -2.65131        1.46028
C          6.39548       -1.41001        1.79149
C          6.68568       -0.94869        3.23101
C          6.79391       -0.27777        0.82362
H          7.02834       -3.00731        0.45313
H          8.30853       -2.42173        1.51588
H          7.04442       -3.46689        2.15402
H          6.07670       -0.08161        3.48621
H          6.46333       -1.73606        3.95035
H          7.73347       -0.67323        3.34947
H          7.85644       -0.05074        0.90948
H          6.59895       -0.56156       -0.21044
H          6.24401        0.63776        1.04109
C          1.20970        5.26303       -0.59912
C          2.53048        4.76271        0.00630
C          3.62410        5.81935       -0.24473
C          2.37308        4.59141        1.53070
H          0.90040        6.20467       -0.14593
H          1.31578        5.42229       -1.67190
H          0.41473        4.53432       -0.44825
H          3.38782        6.74989        0.27132
H          4.59146        5.47304        0.11890
H          3.71550        6.05051       -1.30564
H          3.28441        4.18453        1.96821
H          2.16572        5.54754        2.01094
H          1.55459        3.91754        1.77702
C          5.17132        2.97196       -4.31234
C          5.39114        1.97947       -3.15477
C          5.53455        0.56313       -3.74546
C          6.69405        2.33341       -2.41442
H          5.98027        2.90602       -5.03974
H          4.23623        2.76427       -4.83049
H          5.13252        3.99971       -3.95383
H          5.74125       -0.16897       -2.96505
H          4.62829        0.26190       -4.26979
H          6.35779        0.52324       -4.45862
H          7.55277        2.26944       -3.08248
H          6.65714        3.34551       -2.01286
H          6.86209        1.65044       -1.58230
H         -0.76381       -0.91821       -5.51954
H          1.06051        0.66202       -5.62804
H         -1.82041       -0.21178       -4.29309
H         -2.11918       -1.84521       -4.88069
H          1.83649       -0.23958       -4.32264
H          2.43504        1.35303       -4.76890
