111
-148.55706751
P         -2.64673        1.80800        0.73199
P          0.21393        0.48618        0.41452
C         -1.63270        1.49209        2.20122
C         -0.36121        0.97989        2.05426
C         -3.62890        3.36727        0.90434
C         -3.00276        4.51361        0.14063
C         -2.12485        1.76496        3.46168
H         -3.12649        2.14674        3.57224
C         -1.33596        1.53187        4.57485
H         -1.71943        1.74473        5.55938
C         -0.05926        1.02576        4.42547
H          0.55458        0.84234        5.29196
C          0.42699        0.74412        3.16179
H          1.41510        0.33311        3.03266
Pd        -1.21188        1.57663       -1.06135
Cl        -2.86447        2.40214       -2.33689
Cl         0.24328        1.27109       -2.73957
C         -5.02275        2.94172        0.40785
C         -4.01126        0.58552        0.45990
H         -2.94166        4.28471       -0.92389
H         -3.58769        5.43020        0.24637
H         -1.98778        4.71589        0.49074
H         -5.08878        3.14276       -0.67040
H         -5.80297        3.56306        0.87350
H         -3.92964        0.27065       -0.58921
C         -5.28299        1.43023        0.66927
C         -3.88884       -0.60337        1.38824
H         -3.66368        3.59663        1.97684
H         -5.63145        1.29341        1.70218
H         -6.09889        1.05716        0.03180
H         -2.95407       -1.14100        1.22094
H         -3.90002       -0.28329        2.43169
H         -4.71196       -1.30755        1.24675
C         -1.46268       -3.67879       -0.34040
C         -1.12419       -2.84489       -1.43885
C         -0.60104       -1.59318       -1.16955
C         -0.35910       -1.18483        0.11504
C         -0.55748       -2.03621        1.16976
C         -1.06443       -3.30985        0.97267
O         -2.27300       -4.82545       -0.54230
C         -1.31859       -3.23588       -2.91257
H         -0.39478       -0.90246       -1.96908
H         -0.33253       -1.68701        2.16305
C         -1.15684       -4.23995        2.19323
C          4.75282        0.62253        0.05862
C          4.12227       -0.44843        0.74134
C          2.74094       -0.43982        0.84026
C          1.99415        0.54719        0.25072
C          2.59226        1.52817       -0.49547
C          3.96829        1.56856       -0.65002
O          6.16570        0.76058        0.10776
C          4.91356       -1.59496        1.39013
H          2.22349       -1.21438        1.37976
H          1.96224        2.25665       -0.97514
C          4.58501        2.62668       -1.57900
C         -2.49797       -2.43994       -3.49709
C         -0.03766       -2.89632       -3.70653
C         -1.57422       -4.74225       -3.09030
C         -1.41248       -5.70427        1.79679
C          0.18379       -4.20685        2.95998
C         -2.28217       -3.75462        3.12238
C         -3.65812       -4.54079       -0.43512
H         -2.32104       -1.36750       -3.41988
H         -2.64651       -2.68008       -4.54944
H         -3.42289       -2.66190       -2.96818
H          0.15266       -1.82467       -3.72965
H          0.83005       -3.38323       -3.26247
H         -0.12044       -3.23276       -4.73962
H         -0.78278       -5.32440       -2.61959
H         -2.51857       -5.03746       -2.63915
H         -1.61439       -5.01223       -4.14530
H         -1.37642       -6.35903        2.66716
H         -2.39019       -5.82334        1.33600
H         -0.66347       -6.04532        1.08296
H          1.00824       -4.48259        2.30298
H          0.39371       -3.21897        3.36674
H          0.17119       -4.90651        3.79528
H         -2.10011       -2.73337        3.45590
H         -3.24531       -3.77154        2.61571
H         -2.35687       -4.38727        4.00643
H         -4.22802       -5.45033       -0.62602
H         -3.88891       -4.17462        0.56394
H         -3.94051       -3.77948       -1.16063
C          6.63288        1.57614        1.17477
C          5.28888       -1.20385        2.82747
C          4.06655       -2.88744        1.43846
C          6.18171       -1.91762        0.57932
C          3.61244        2.97123       -2.73065
C          4.87093        3.90558       -0.77800
C          5.87991        2.10642       -2.22948
H          4.39528       -0.99904        3.41675
H          5.84122       -2.00465        3.31852
H          5.90786       -0.31017        2.84389
H          3.23086       -2.79523        2.13067
H          3.67149       -3.13014        0.45228
H          4.66777       -3.73171        1.77511
H          5.92698       -2.15335       -0.45340
H          6.87032       -1.07625        0.56930
H          6.71073       -2.77139        1.00203
H          3.28193        2.06761       -3.24215
H          2.73178        3.50104       -2.37111
H          4.09461        3.61511       -3.46572
H          5.56647        3.71423        0.03560
H          5.30221        4.67705       -1.41541
H          3.95328        4.30096       -0.34312
H          5.69336        1.17461       -2.76234
H          6.64952        1.91636       -1.48562
H          6.27991        2.82945       -2.93988
H          5.79627        1.92820        1.77960
H          7.31743        1.00227        1.79923
H          7.17598        2.43087        0.77212
