87
-129.18645084
P         -1.74458       -0.40756       -0.09952
P          1.50424        0.43670       -0.07581
C         -1.51763        0.95096       -1.27131
C          1.31320       -0.55629       -1.56264
C         -0.54864        0.94300       -2.27260
C         -0.37997        2.09566       -3.06434
C         -1.19151        3.19514       -2.84556
C         -2.15080        3.18312       -1.85723
C         -2.30490        2.05960       -1.06957
C          2.14884       -1.62894       -1.75603
C          2.01584       -2.41825       -2.88108
C          1.03885       -2.12561       -3.80887
C          0.18359       -1.05060       -3.63236
C          0.32509       -0.24093       -2.48771
Cl         1.15046        1.04331        3.07437
Cl        -1.47783       -0.87959        3.07636
H         -2.77153        4.04868       -1.69301
H         -3.04512        2.04970       -0.28684
H          2.91056       -1.84956       -1.02690
H          2.66933       -3.26222       -3.02969
H         -1.05916        4.07181       -3.45677
H          0.92702       -2.74229       -4.68450
C         -0.92171       -4.55557       -1.76254
C         -0.33116       -4.16805       -0.56751
C         -0.61547       -2.90286       -0.06959
C         -1.45278       -2.05255       -0.75452
C         -2.05145       -2.45211       -1.92595
C         -1.78505       -3.71067       -2.43254
H         -0.69837       -5.52852       -2.16588
C          0.62626       -5.05853        0.14277
H         -0.18893       -2.58915        0.86730
H         -2.70539       -1.77119       -2.44739
H         -2.24040       -4.02605       -3.35694
C         -5.85015       -0.12967        1.85361
C         -5.60577       -1.09331        0.89535
C         -4.35727       -1.18156        0.30881
C         -3.36432       -0.30535        0.68073
C         -3.60661        0.65562        1.63530
C         -4.85206        0.75235        2.24379
H         -6.82227       -0.05785        2.31088
H         -6.38661       -1.77720        0.60542
H         -4.15174       -1.93307       -0.43560
H         -2.81667        1.32724        1.92898
C         -5.10811        1.79968        3.26968
C          5.00021       -1.15036        2.37759
C          5.06494        0.11682        1.83228
C          4.00925        0.59979        1.08230
C          2.89853       -0.18601        0.88414
C          2.83088       -1.44743        1.42938
C          3.88559       -1.95322        2.17854
H          5.81774       -1.52526        2.96951
H          5.93493        0.73151        1.99564
H          4.04227        1.58996        0.65819
H          1.95156       -2.04914        1.27458
C          3.79250       -3.30755        2.78821
C          2.09027        4.81481       -1.12421
C          1.21083        4.46670       -0.11789
C          1.03804        3.13704        0.21627
C          1.74106        2.16994       -0.46272
C          2.62430        2.51181       -1.46001
C          2.80763        3.84494       -1.81077
H          2.22977        5.85028       -1.38433
H          0.66089        5.22974        0.40807
H          0.36514        2.84935        1.00766
H          3.16680        1.73688       -1.97656
C          3.77084        4.22715       -2.87891
Pd        -0.14229        0.05112        1.53240
C          0.65260        2.16141       -4.13615
C         -0.86666       -0.78049       -4.65313
H          1.41233        1.38971       -4.00834
H          0.20068        2.03138       -5.12016
H          1.16107        3.12639       -4.12669
H         -1.60449       -0.06478       -4.28897
H         -0.42673       -0.37689       -5.56591
H         -1.39866       -1.69628       -4.91471
H          0.42404       -6.10857       -0.07274
H          1.65165       -4.84275       -0.16121
H          0.56016       -4.92259        1.22326
H         -4.23565        1.93962        3.90966
H         -5.33766        2.75631        2.79828
H         -5.94833        1.52903        3.91057
H          3.24581       -3.26915        3.73142
H          3.27146       -4.00019        2.12556
H          4.78207       -3.72085        2.98810
H          3.36611        5.02448       -3.50403
H          4.70817        4.58016       -2.44665
H          3.99843        3.38028       -3.52799
