58
-89.85930585
P          1.64066       -0.17043        0.71341
C          2.53434        1.35382        1.02034
C          2.70725        2.23078       -0.02587
C          3.39602        3.41324        0.17076
C          3.91536        3.70420        1.41673
C          3.75476        2.81360        2.46031
C          3.06482        1.63138        2.25967
H          2.94870        0.91995        3.06113
H          2.32436        1.96639       -0.99860
C          2.71849       -1.42166        0.01235
C          4.05451       -1.15608       -0.18118
C          4.87259       -2.12134       -0.73977
C          4.34376       -3.34460       -1.10239
C          3.00105       -3.60462       -0.90966
C          2.18493       -2.63740       -0.35051
H          1.13222       -2.82190       -0.20292
H          4.44953       -0.19291        0.09868
C          0.81569       -0.85037        2.20661
C         -0.00382        0.17263        2.97920
C         -0.83449        1.09968        2.10305
P         -1.68165        0.26115        0.69965
C         -2.26306       -1.39429        1.07239
C         -2.80329       -1.68884        2.30327
C         -3.23963       -2.97439        2.56934
C         -3.13780       -3.95161        1.59841
C         -2.60991       -3.64639        0.35927
C         -2.17560       -2.36031        0.09554
H         -1.79291       -2.09439       -0.87699
H         -2.88885       -0.91249        3.04657
C         -3.00873        1.29593        0.08028
C         -4.28016        0.78483       -0.04455
C         -5.29518        1.58169       -0.54258
C         -5.02654        2.88424       -0.91491
C         -3.74756        3.39081       -0.79224
C         -2.73426        2.59150       -0.29335
H         -1.72776        2.96899       -0.20286
H         -4.47124       -0.23667        0.24217
Pd        -0.00710        0.08519       -0.90591
Cl         1.62955        0.22250       -2.43730
Cl        -1.64868        0.23861       -2.43020
H         -1.59445        1.62757        2.68414
H         -0.20406        1.86538        1.64508
H         -0.65921       -0.35430        3.68838
H          0.65998        0.77867        3.61332
H          0.18127       -1.66169        1.84439
H          1.58239       -1.31193        2.83325
H          3.53157        4.10099       -0.64767
H          4.16865        3.03736        3.42983
H          5.91911       -1.91663       -0.89517
H          2.58770       -4.55719       -1.19775
H         -3.65976       -3.21171        3.53291
H         -2.54196       -4.40528       -0.40277
H         -6.29190        1.18468       -0.64343
H         -3.53667        4.40503       -1.08912
H          4.45340        4.62492        1.57334
H          4.97967       -4.09668       -1.54026
H         -3.47784       -4.95314        1.80590
H         -5.81572        3.50545       -1.30606
