111
-148.55476743
P         -2.67072        1.97052        0.65287
P          0.13703        0.52811        0.40019
C         -1.68709        1.64146        2.14246
C         -0.44436        1.05859        2.02179
C         -3.73324        3.47013        0.88161
C         -3.52643        4.47006       -0.23430
C         -2.17783        1.95742        3.39363
H         -3.15810        2.39486        3.48749
C         -1.41618        1.69596        4.51963
H         -1.79917        1.94308        5.49628
C         -0.16829        1.11631        4.39412
H          0.42326        0.90996        5.27086
C          0.31712        0.79172        3.14038
H          1.28134        0.32207        3.02503
Pd        -1.18878        1.71675       -1.10087
Cl        -2.70766        2.48290       -2.55203
Cl         0.41992        1.25758       -2.60379
C         -5.15742        2.87746        0.93304
C         -3.96454        0.68691        0.33486
H         -3.81804        4.03969       -1.19325
H         -4.12636        5.37064       -0.08324
H         -2.47855        4.76921       -0.31182
H         -5.87200        3.60371        0.51887
H         -5.46267        2.72609        1.97889
H         -3.69351        0.18685       -0.60532
C         -5.24882        1.52514        0.17051
C         -4.02022       -0.31256        1.46916
H         -3.45255        3.91679        1.84469
H         -6.11505        0.94231        0.51625
H         -5.43023        1.72222       -0.89643
H         -4.26715        0.18483        2.40902
H         -4.77558       -1.08166        1.29085
H         -3.05716       -0.80918        1.60388
C         -1.29578       -3.72983       -0.37512
C         -1.20850       -2.80415       -1.44899
C         -0.73835       -1.53176       -1.17699
C         -0.46902       -1.13328        0.10460
C         -0.67489       -1.98257        1.15985
C         -1.11925       -3.27879        0.95993
O         -1.47086       -5.11173       -0.64333
C         -1.63242       -3.11398       -2.89420
H         -0.55725       -0.83360       -1.97591
H         -0.46774       -1.62471        2.15364
C         -1.38075       -4.14764        2.20153
C          4.68544        0.46424        0.17879
C          3.96824       -0.70261        0.54567
C          2.58840       -0.62382        0.62329
C          1.92256        0.52650        0.28813
C          2.60305        1.62624       -0.16282
C          3.98447        1.61337       -0.27025
O          6.10114        0.49169        0.29068
C          4.65782       -2.03651        0.87278
H          2.00785       -1.47014        0.94766
H          2.03464        2.49687       -0.44055
C          4.70058        2.83773       -0.86195
C         -2.52117       -1.96376       -3.41968
C         -0.38256       -3.23001       -3.78207
C         -2.46010       -4.40649       -2.99665
C         -2.19551       -3.34130        3.23717
C         -2.19887       -5.40863        1.87348
C         -0.03557       -4.55480        2.82595
C         -0.24304       -5.78631       -0.86309
H         -2.89830       -2.18821       -4.41694
H         -3.37704       -1.80855       -2.76340
H         -1.97371       -1.02492       -3.48428
H          0.26308       -4.04039       -3.44914
H         -0.65809       -3.42430       -4.81824
H          0.19967       -2.30942       -3.75719
H         -3.31599       -4.36881       -2.32364
H         -2.83054       -4.55643       -4.01046
H         -1.86559       -5.27745       -2.73121
H         -1.64895       -2.47183        3.59840
H         -3.13319       -2.99568        2.80351
H         -2.43544       -3.95587        4.10447
H         -1.64259       -6.08263        1.22648
H         -2.45433       -5.95792        2.77935
H         -3.12445       -5.14401        1.36338
H         -0.18780       -5.15906        3.71987
H          0.56278       -5.13536        2.12626
H          0.54411       -3.67663        3.10911
H          0.29306       -5.32720       -1.69207
H          0.37878       -5.73114        0.02903
H         -0.44404       -6.83175       -1.09796
C          6.57407        0.93612        1.55588
C          5.94515       -2.21068        0.04696
C          4.97962       -2.08794        2.37385
C          3.73430       -3.22782        0.52556
C          5.98146        2.42293       -1.60881
C          3.79401        3.55371       -1.88938
C          5.04100        3.82377        0.26539
H          6.68148       -1.45032        0.29522
H          6.40069       -3.18331        0.23120
H          5.73067       -2.13250       -1.01834
H          5.64559       -1.27813        2.66212
H          4.06949       -1.99553        2.96621
H          5.46035       -3.02951        2.63807
H          2.86971       -3.27525        1.18609
H          3.37731       -3.15554       -0.50153
H          4.26656       -4.17311        0.62903
H          5.75420        1.68768       -2.37999
H          6.45240        3.28166       -2.08656
H          6.71009        1.98258       -0.93269
H          2.93776        4.02692       -1.41133
H          4.34288        4.33787       -2.41026
H          3.42437        2.85087       -2.63564
H          5.54113        4.70857       -0.12760
H          5.69630        3.36740        1.00344
H          4.13676        4.14753        0.78025
H          5.73688        1.17686        2.21226
H          7.18220        0.15594        2.01336
H          7.19792        1.81984        1.42306
