105
-153.07120531
Cl         0.50414        3.15745        2.45230
Pd        -0.17607        1.79913        0.79022
P         -0.76550        0.51312       -1.11760
N          0.35224       -0.75365       -1.61592
C          0.54109       -2.12275       -1.38662
C          0.05280       -2.82520       -0.25350
C          0.47536       -4.15041       -0.02143
C          0.18740       -4.80702        1.30752
C          0.15810       -6.33847        1.21674
C          1.45922       -6.85187        0.59029
C          1.67538       -6.25971       -0.81446
C          1.26334       -4.81311       -0.96623
C          1.68710       -4.12303       -2.09481
C          1.35925       -2.80574       -2.28556
H          1.72993       -2.27507       -3.14555
H          2.30221       -4.63302       -2.81690
H          2.72956       -6.35534       -1.10417
H          2.30272       -6.57599        1.23569
H         -0.01331       -6.79120        2.20356
H          0.96858       -4.49898        2.01314
C         -0.73303       -2.12552        0.78860
C         -0.05351       -1.20111        1.61547
C         -0.76231       -0.55103        2.62421
C         -2.09058       -0.82401        2.82809
C         -2.76343       -1.76059        2.04991
C         -4.20803       -2.05331        2.35439
C         -4.63085       -3.45394        1.88975
C         -4.27522       -3.65172        0.41314
C         -2.76912       -3.45899        0.15571
C         -2.08838       -2.41801        1.01898
H         -2.26137       -4.41909        0.29443
H         -4.84339       -2.93217       -0.18584
H         -5.70360       -3.62016        2.06311
H         -4.83140       -1.29493        1.86659
H         -2.62809       -0.31148        3.60769
H         -0.25094        0.17182        3.23482
N          1.30701       -0.96022        1.40148
P          1.86004        0.69008        1.12697
C          2.66053        0.85176       -0.46720
C          2.36150        1.93582       -1.25894
C          2.83768        1.98995       -2.55512
C          3.62264        0.96473       -3.06288
C          3.93387       -0.10918       -2.24017
C          3.45841       -0.16303       -0.94219
H          3.67925       -1.00918       -0.31130
H          4.53753       -0.91214       -2.62765
C          4.08284        0.99610       -4.47852
H          2.58252        2.82232       -3.18873
H          1.73675        2.72614       -0.87419
C          2.88134        1.30968        2.45408
C          2.82334        0.68697        3.67705
C          3.58435        1.16706        4.72812
C          4.40909        2.27088        4.55458
C          4.44396        2.89106        3.31228
C          3.68212        2.40959        2.26281
H          3.70112        2.89096        1.29789
H          5.06711        3.75792        3.17339
C          5.20555        2.80802        5.69241
H          3.53835        0.68871        5.69148
H          2.18326       -0.17206        3.80061
H          1.75870       -1.53279        0.70229
H          1.16202       -0.23912       -1.94268
C         -0.66038        1.74013       -2.42982
C         -1.03676        3.04634       -2.22783
C         -0.92326        3.96554       -3.25273
C         -0.43347        3.58244       -4.49382
C         -0.08589        2.25323       -4.69144
C         -0.20000        1.33694       -3.66142
H          0.07393        0.30555       -3.81323
H          0.27798        1.94046       -5.65522
C         -0.32661        4.56774       -5.60506
H         -1.21757        4.98906       -3.09486
H         -1.42968        3.33904       -1.26935
C         -2.43527       -0.12626       -1.24171
C         -2.66075       -1.04430       -2.24054
C         -3.94562       -1.49521       -2.49005
C         -5.01440       -1.02707       -1.73791
C         -4.76921       -0.09201       -0.74190
C         -3.48594        0.35943       -0.50130
H         -3.30491        1.12422        0.23311
H         -5.59406        0.29529       -0.16852
C         -6.40247       -1.48625       -2.02097
H         -4.12488       -2.21006       -3.27474
H         -1.82682       -1.39631       -2.82765
Cl        -2.16555        2.83746        0.74947
H          1.11797       -6.85194       -1.55009
H         -0.69162       -6.64857        0.59577
H          1.46509       -7.95043        0.55553
H         -0.74481       -4.42471        1.73730
H         -4.60524       -4.64053        0.06496
H         -2.59490       -3.20289       -0.89578
H         -4.38505       -1.93489        3.43098
H         -4.11154       -4.20922        2.49304
H          4.22415        2.02122       -4.82383
H          5.03283        0.47291       -4.59597
H          3.35174        0.51886       -5.13268
H          5.49424        2.01284        6.38118
H          6.11942        3.28919        5.34118
H          4.63019        3.54634        6.25250
H         -1.25090        4.60090       -6.18340
H         -0.13152        5.57113       -5.22398
H          0.48676        4.30829       -6.28422
H         -7.00736       -1.49365       -1.11304
H         -6.88771       -0.82839       -2.74316
H         -6.40773       -2.49747       -2.43035
