171
-217.84710287
P         -1.60456        0.39989       -0.34132
P          1.61197       -0.42736       -0.36891
C         -0.89122        1.33675       -1.69750
C          0.88428       -1.37493       -1.70968
C         -0.10587        0.71672       -2.66257
C          0.50951        1.51204       -3.64832
C          0.28417        2.87843       -3.65454
C         -0.52182        3.47019       -2.70538
C         -1.09979        2.69421       -1.71984
C          1.09930       -2.73124       -1.73393
C          0.50758       -3.51113       -2.70820
C         -0.31810       -2.92452       -3.64363
C         -0.54934       -1.55912       -3.63567
C          0.07971       -0.75978       -2.66188
Cl         1.61735        0.39373        2.81967
Cl        -1.54943       -0.34236        2.85525
C         -1.44398       -0.96273       -4.66555
C          1.38447        0.91046       -4.69209
H         -0.69726        4.53325       -2.72938
H         -1.71742        3.14966       -0.96244
H          1.73321       -3.18252       -0.98766
H          0.68603       -4.57373       -2.73273
H          0.74995        3.48079       -4.41623
H         -0.79451       -3.53016       -4.39608
C         -3.86491       -3.34428       -1.48976
C         -2.88267       -3.42510       -0.50994
C         -2.17865       -2.26821       -0.20572
C         -2.46440       -1.08737       -0.84460
C         -3.44162       -1.02176       -1.80681
C         -4.16570       -2.15810       -2.14897
H         -4.42629       -4.22395       -1.74183
H         -1.40633       -2.28302        0.54347
H         -3.63790       -0.07424       -2.27909
C         -4.34054        3.00974        2.16107
C         -4.90352        2.03467        1.34751
C         -4.04497        1.25043        0.58831
C         -2.68799        1.45076        0.63806
C         -2.14893        2.42274        1.44458
C         -2.96868        3.21497        2.23806
H         -4.98997        3.62219        2.75918
H         -4.42850        0.46777       -0.04112
H         -1.07973        2.54389        1.46578
C          4.37010       -2.94864        2.20171
C          3.00591       -3.21546        2.22239
C          2.18419       -2.45512        1.40181
C          2.70851       -1.45913        0.61591
C          4.05676       -1.20303        0.61418
C          4.91936       -1.95149        1.40463
H          5.02739       -3.51972        2.83000
H          1.12047       -2.62443        1.39584
H          4.42836       -0.40091        0.00205
C          3.85039        3.31724       -1.55770
C          2.88074        3.39823       -0.56550
C          2.18609        2.24032       -0.24474
C          2.46041        1.05998       -0.88899
C          3.42331        0.99379       -1.86547
C          4.14210        2.13008       -2.21935
H          4.41085        4.19590       -1.81560
H          1.43591        2.25396        0.52722
H          3.61518        0.04488       -2.33673
Pd         0.02168       -0.02916        1.28285
C         -2.39791       -4.48280        1.72610
C         -2.54015       -4.73687        0.21129
C         -1.21415       -5.27635       -0.34751
C         -3.63736       -5.79938        0.00557
H         -3.30608       -4.03440        2.12811
H         -2.21578       -5.41441        2.26157
H         -1.56796       -3.81332        1.94621
H         -0.91950       -6.19615        0.15733
H         -1.30444       -5.48832       -1.41257
H         -0.41567       -4.54698       -0.21920
H         -3.41520       -6.70015        0.57768
H         -4.60728       -5.42636        0.33426
H         -3.71529       -6.09078       -1.04146
C         -6.63747       -2.41480       -2.44232
C         -5.31231       -2.12271       -3.16978
C         -5.07497       -3.18859       -4.25653
C         -5.42369       -0.74547       -3.85281
H         -6.81861       -1.67706       -1.66110
H         -7.47819       -2.38650       -3.13526
H         -6.62185       -3.39874       -1.97473
H         -5.06358       -4.19257       -3.83445
H         -5.86101       -3.15639       -5.01082
H         -4.12164       -3.02680       -4.75764
H         -6.22636       -0.74349       -4.59013
H         -5.64401        0.03689       -3.12691
H         -4.50008       -0.48659       -4.36925
C         -6.90743        1.45529        2.73598
C         -6.42552        1.83566        1.32413
C         -6.83644        0.71407        0.34915
C         -7.10411        3.14307        0.87618
H         -6.68494        2.24234        3.45553
H         -7.98392        1.28563        2.74877
H         -6.41712        0.54332        3.07614
H         -6.52136        0.94457       -0.66837
H         -6.39631       -0.23957        0.64028
H         -7.91890        0.58733        0.33858
H         -6.88691        3.95881        1.56470
H         -6.75484        3.43810       -0.11317
H         -8.18663        3.02491        0.83083
C         -0.86113        4.24884        3.22030
C         -2.40196        4.27528        3.19261
C         -2.91071        4.00094        4.62048
C         -2.86297        5.66878        2.73115
H         -0.47290        4.98138        3.92770
H         -0.49111        3.26875        3.52137
H         -0.44949        4.48927        2.24168
H         -3.99613        4.07050        4.67772
H         -2.62118        3.00133        4.94425
H         -2.49460        4.71863        5.32725
H         -3.94978        5.74557        2.73541
H         -2.46929        6.44674        3.38507
H         -2.51704        5.87207        1.71770
C          1.63676       -5.31571        2.28651
C          2.37466       -4.27037        3.14164
C          1.37498       -3.57659        4.08726
C          3.43459       -4.99380        3.99370
H          0.83658       -4.85517        1.71041
H          2.32085       -5.79522        1.58665
H          1.19299       -6.09026        2.91176
H          1.87512       -2.81189        4.68102
H          0.57328       -3.09177        3.53151
H          0.92045       -4.29357        4.77051
H          3.96987       -4.29168        4.63262
H          2.96889       -5.73789        4.63981
H          4.15827       -5.51067        3.36370
C          6.83247       -1.24796        2.86088
C          6.43036       -1.68197        1.43975
C          6.83071       -0.56468        0.45519
C          7.18819       -2.96512        1.05221
H          7.89850       -1.02793        2.91528
H          6.28654       -0.35255        3.15754
H          6.61468       -2.02837        3.58908
H          6.56182       -0.82901       -0.56741
H          6.34298        0.37633        0.70920
H          7.90687       -0.39396        0.47996
H          8.26477       -2.79541        1.04677
H          6.98296       -3.77442        1.75185
H          6.89415       -3.29963        0.05750
C          1.13057        5.13875       -0.15510
C          2.56355        4.69741        0.18813
C          3.53248        5.83205       -0.19560
C          2.68367        4.45009        1.70473
H          0.85240        6.03571        0.39793
H          1.04302        5.35760       -1.21870
H          0.41128        4.35690        0.08401
H          3.45304        6.07602       -1.25477
H          3.30832        6.73811        0.36729
H          4.56434        5.55490        0.01966
H          2.48458        5.36277        2.26605
H          1.97882        3.69246        2.04378
H          3.68651        4.10843        1.95985
C          5.38271        0.71250       -3.93150
C          5.27479        2.09340       -3.25539
C          6.60876        2.39518       -2.54812
C          5.01743        3.15186       -4.34470
H          5.61563       -0.06441       -3.20358
H          4.45343        0.44684       -4.43419
H          6.17569        0.70912       -4.67922
H          6.59608        3.38209       -2.08678
H          6.80340        1.66318       -1.76470
H          7.43995        2.36529       -3.25240
H          4.05871        2.98176       -4.83263
H          5.00529        4.15796       -3.92767
H          5.79398        3.12022       -5.10879
H         -2.31862       -1.59196       -4.83088
H          0.84710        0.79943       -5.63477
H         -0.92501       -0.85746       -5.61916
H         -1.80000        0.02280       -4.36237
H          1.74679       -0.07326       -4.39051
H          2.25553        1.53904       -4.87768
