171
-217.83673151
P         -1.52815        0.21251       -0.23823
P          1.70701       -0.69800        0.23599
C         -0.67979        0.67049       -1.76494
C          0.86135       -1.95276       -0.75844
C          0.04645       -0.30185       -2.44114
C          0.72162        0.04374       -3.62748
C          0.61434        1.33760       -4.10985
C         -0.10549        2.29308       -3.42382
C         -0.74569        1.95485       -2.24828
C          0.92131       -3.22555       -0.24106
C          0.25504       -4.26401       -0.86275
C         -0.49512       -4.01131       -1.99096
C         -0.59007       -2.73334       -2.51489
C          0.11744       -1.68261       -1.90163
Cl         1.11996       -0.31623        3.41487
Cl        -1.94866       -0.90479        2.88765
C         -1.45950       -2.50328       -3.70134
C          1.53467       -0.96228       -4.36536
H         -0.16326        3.30166       -3.79947
H         -1.28969        2.70347       -1.70071
H          1.48847       -3.40214        0.66103
H          0.31218       -5.26211       -0.46019
H          1.10422        1.59295       -5.03390
H         -1.02714       -4.81261       -2.47541
C         -4.59173       -2.98469       -1.19898
C         -4.58888       -1.80832       -1.93972
C         -3.64235       -0.84351       -1.61886
C         -2.74901       -1.05028       -0.59718
C         -2.76745       -2.21824        0.12274
C         -3.69050       -3.21417       -0.16692
H         -5.31820       -3.74389       -1.41951
H         -3.59753        0.07529       -2.17710
H         -2.05882       -2.34433        0.92104
C         -3.74785        3.84997        1.38330
C         -3.89560        3.49675        0.04863
C         -3.22625        2.36651       -0.40431
C         -2.40815        1.64560        0.43266
C         -2.28557        2.01227        1.75151
C         -2.95395        3.11776        2.25591
H         -4.27318        4.71326        1.74614
H         -3.33498        2.04705       -1.42527
H         -1.68231        1.42118        2.41449
C          5.71636       -2.46704        1.38769
C          5.25866       -2.60032        0.08180
C          4.02138       -2.05173       -0.22967
C          3.28100       -1.40570        0.72958
C          3.74744       -1.28651        2.01325
C          4.98020       -1.81571        2.37008
H          6.66903       -2.88332        1.65612
H          3.62357       -2.13866       -1.22746
H          3.12584       -0.79369        2.73735
C          2.75990        3.41861       -1.34902
C          1.82738        3.32779       -0.32276
C          1.48003        2.06013        0.12556
C          2.04810        0.93836       -0.43358
C          2.98048        1.05008       -1.43578
C          3.35572        2.29928       -1.91592
H          3.05563        4.38710       -1.70572
H          0.77999        1.95270        0.93507
H          3.42718        0.15249       -1.82645
Pd        -0.17868       -0.42675        1.58663
C         -4.89976       -1.11134       -4.34098
C         -5.61965       -1.51767       -3.04054
C         -6.52818       -0.36577       -2.57411
C         -6.49642       -2.74885       -3.33956
H         -4.24735       -1.91149       -4.68832
H         -5.61871       -0.90016       -5.13241
H         -4.29256       -0.21806       -4.20081
H         -7.04752       -0.63319       -1.65406
H         -5.94865        0.53550       -2.37870
H         -7.27710       -0.12686       -3.32894
H         -7.19930       -2.53627       -4.14503
H         -5.88601       -3.59770       -3.64755
H         -7.07875       -3.03967       -2.46555
C         -3.56569       -5.71737       -0.31599
C         -3.75319       -4.52162        0.63521
C         -5.12233       -4.62078        1.33189
C         -2.65207       -4.57927        1.71307
H         -4.34487       -5.74637       -1.07660
H         -2.60397       -5.65749       -0.82371
H         -3.59878       -6.65938        0.23109
H         -5.19209       -5.53044        1.92805
H         -5.27804       -3.76961        1.99449
H         -5.93526       -4.63353        0.60683
H         -2.76212       -3.76656        2.43074
H         -2.70115       -5.51646        2.26704
H         -1.66092       -4.51198        1.26562
C         -4.26288        5.80502       -0.86269
C         -4.77278        4.35144       -0.87707
C         -6.22859        4.30335       -0.38025
C         -4.73251        3.84179       -2.33150
H         -3.22242        5.85039       -1.18420
H         -4.85089        6.43099       -1.53366
H         -4.32412        6.23894        0.13450
H         -6.59708        3.27765       -0.36918
H         -6.31403        4.70018        0.63075
H         -6.88135        4.89016       -1.02628
H         -3.71527        3.85277       -2.72282
H         -5.12001        2.82628       -2.40357
H         -5.34226        4.47179       -2.97898
C         -3.60954        4.72566        4.11751
C         -2.80420        3.46697        3.74332
C         -1.31982        3.72555        4.05945
C         -3.31408        2.28665        4.59163
H         -3.48935        4.96115        5.17490
H         -3.27230        5.59063        3.54655
H         -4.67347        4.58053        3.93121
H         -1.18355        3.98255        5.10965
H         -0.71098        2.84651        3.85133
H         -0.93884        4.55061        3.45867
H         -3.24055        2.50980        5.65572
H         -4.35714        2.07032        4.36215
H         -2.73664        1.38289        4.40049
C          6.31186       -2.37445       -2.18393
C          6.04994       -3.33541       -1.00917
C          5.22777       -4.54119       -1.50113
C          7.40562       -3.84641       -0.48507
H          5.37934       -2.03490       -2.63316
H          6.86251       -1.49637       -1.84703
H          6.89735       -2.86153       -2.96350
H          4.27556       -4.22410       -1.92524
H          5.76756       -5.09468       -2.26927
H          5.01572       -5.22370       -0.67837
H          7.95668       -4.35866       -1.27372
H          8.02497       -3.02222       -0.13161
H          7.26915       -4.55330        0.33312
C          6.87500       -0.95635        3.77117
C          5.53215       -1.70918        3.79897
C          5.73985       -3.12380        4.37006
C          4.56496       -0.94638        4.72609
H          7.61351       -1.48452        3.16924
H          6.74844        0.03979        3.34751
H          7.28155       -0.84668        4.77641
H          6.11237       -3.08065        5.39337
H          4.80113       -3.67747        4.37544
H          6.45821       -3.68900        3.77745
H          4.39502        0.06823        4.36655
H          3.60284       -1.45373        4.79319
H          4.97079       -0.87530        5.73503
C          1.61836        4.52602        1.86423
C          1.24403        4.56883        0.37100
C         -0.28619        4.57831        0.22042
C          1.79542        5.87534       -0.23174
H          1.23531        5.40112        2.38871
H          1.21159        3.63943        2.34858
H          2.70084        4.50528        1.98840
H         -0.57035        4.64861       -0.82877
H         -0.72380        3.67089        0.63004
H         -0.72723        5.42641        0.74384
H          1.37139        6.74264        0.27427
H          2.87883        5.92998       -0.12684
H          1.54421        5.95585       -1.28925
C          5.63038        3.24470       -2.36651
C          4.44716        2.47468       -2.98185
C          3.88303        3.26346       -4.17724
C          4.96534        1.11645       -3.49184
H          5.32659        4.23635       -2.03310
H          6.03024        2.71016       -1.50495
H          6.43518        3.36793       -3.09104
H          3.03933        2.73805       -4.62128
H          3.54041        4.25250       -3.87589
H          4.64078        3.39486       -4.94950
H          5.41534        0.54233       -2.68257
H          4.15921        0.52772       -3.92720
H          5.72630        1.25489       -4.25974
H         -1.62671       -1.43974       -3.87628
H          2.04049       -1.63984       -3.67545
H         -2.43462       -2.97058       -3.55608
H         -1.01511       -2.93038       -4.60136
H          2.29927       -0.48156       -4.97712
H          0.90837       -1.56010       -5.02825
