59
-75.79959309
Cl         1.61947        0.22547        2.39010
P          1.56833       -0.34572       -0.79426
P         -1.55647        0.20219       -0.84746
C          0.62523       -0.65014       -2.35524
H          1.29529       -0.49512       -3.20595
H          0.36115       -1.71014       -2.35864
C         -0.60886        0.20708       -2.43689
H         -1.27751       -0.10464       -3.24468
H         -0.34418        1.24715       -2.64038
C          2.74832       -1.75819       -0.55756
H          2.62893       -2.40365       -1.43630
C          2.78633        1.04904       -0.86840
H          2.84121        1.45041        0.15145
C         -2.80258       -1.16058       -0.69249
H         -2.88425       -1.36845        0.38188
C         -2.71093        1.65574       -0.87903
H         -2.55974        2.13933       -1.85185
C          4.13628       -1.08897       -0.56274
H          4.48780       -0.99822        0.47398
H          4.87257       -1.73230       -1.06741
C          4.09686        0.32140       -1.21161
H          4.17543        0.22978       -2.30402
H          4.96374        0.92471       -0.90053
C         -4.09038       -0.48342       -1.19012
H         -4.14513       -0.58669       -2.28295
H         -4.97580       -1.00674       -0.79715
C         -4.11302        1.02054       -0.80343
H         -4.49121        1.12222        0.22280
H         -4.82259        1.57669       -1.43417
C          2.43852       -2.53900        0.71410
H          1.37703       -2.81959        0.72038
H          2.56143       -1.87138        1.57662
C          2.40076        2.16153       -1.83752
H          3.28644        2.77570       -2.05181
H          2.12084        1.71582       -2.80023
C         -2.42377       -2.43764       -1.43493
H         -3.31714       -3.06785       -1.54565
H         -2.12519       -2.18090       -2.45897
C         -2.41301        2.63903        0.24685
H         -2.58287        2.13698        1.20775
H         -1.34383        2.88796        0.24184
C          3.30638       -3.77759        0.87869
H          4.36564       -3.51780        0.91996
H          3.17606       -4.46379        0.03970
H          3.06781       -4.32627        1.79265
C          1.28173        3.04090       -1.30178
H          0.40871        2.44611       -1.03524
H          0.96326        3.79312       -2.02701
H          1.59164        3.56640       -0.39637
C         -1.32568       -3.22006       -0.73143
H         -0.44226       -2.60240       -0.57255
H         -1.01731       -4.10104       -1.29886
H         -1.65229       -3.56016        0.25325
C         -3.24532        3.90961        0.16303
H         -4.31311        3.68874        0.21102
H         -3.01726        4.60289        0.97584
H         -3.06757        4.43527       -0.77709
Cl        -1.65861        0.25320        2.34935
Pd        -0.00179        0.02830        0.85397
