59
-75.80283152
Cl         1.63738       -0.06254        2.38067
P          1.60640       -0.10497       -0.89046
P         -1.63077       -0.04775       -0.77427
C          0.56607        0.20369       -2.38562
H          0.33194        1.26871       -2.44823
H          1.14657       -0.05588       -3.27629
C         -0.69053       -0.61150       -2.26241
H         -0.45248       -1.67136       -2.14183
H         -1.33762       -0.51649       -3.13999
C          2.68337       -1.57992       -1.23526
H          2.67709       -1.65555       -2.33137
C          2.92787        1.15868       -0.56614
H          2.89717        1.35169        0.51341
C         -2.99299       -1.21018       -0.30035
H         -3.11524       -1.07251        0.78175
C         -2.69752        1.38485       -1.27271
H         -2.16731        1.94513       -2.05271
C          4.07599       -1.11455       -0.77943
H          4.22661       -1.38752        0.27236
H          4.86070       -1.64778       -1.33754
C          4.22829        0.42208       -0.93382
H          4.48842        0.66137       -1.97406
H          5.06611        0.79739       -0.32676
C         -4.22750       -0.66932       -1.05844
H         -4.59250       -1.44125       -1.75044
H         -5.05399       -0.50670       -0.35121
C         -3.92960        0.64708       -1.83693
H         -4.80510        1.31345       -1.82064
H         -3.75916        0.41390       -2.89924
C          2.20233       -2.90308       -0.63870
H          2.86563       -3.70738       -0.98604
H          1.21912       -3.14329       -1.06425
C          2.71654        2.46064       -1.33056
H          3.63526        3.06120       -1.27496
H          2.58788        2.22970       -2.39599
C         -2.66408       -2.66748       -0.59615
H         -3.56474       -3.27875       -0.44454
H         -2.42427       -2.76882       -1.66242
C         -3.04567        2.30077       -0.10096
H         -3.90528        2.92541       -0.38142
H         -3.40043        1.68128        0.73320
C          2.12560       -2.93703        0.87932
H          1.72570       -3.88540        1.24600
H          1.48218       -2.14693        1.26323
H          3.10500       -2.80465        1.34050
C          1.53958        3.27035       -0.81136
H          0.61258        2.70064       -0.86958
H          1.39377        4.19388       -1.37624
H          1.67992        3.54362        0.23627
C         -1.52795       -3.19777        0.26280
H         -0.62782       -2.59753        0.13318
H         -1.27447       -4.23233        0.02065
H         -1.78319       -3.15959        1.32355
C         -1.89968        3.19065        0.35236
H         -1.53824        3.81689       -0.46534
H         -2.19670        3.85478        1.16723
H         -1.05613        2.60236        0.71200
Cl        -1.52773        0.47255        2.37450
Pd         0.04938        0.14834        0.80594
