75
-122.81814484
P          1.86598       -0.55468       -0.02200
C          3.20638       -1.25431       -0.99841
C          4.45543       -1.33297       -0.42530
C          5.50618       -1.88361       -1.13691
C          5.29533       -2.35977       -2.41558
C          4.03762       -2.29125       -2.98108
C          2.98951       -1.74036       -2.26710
H          2.00392       -1.68106       -2.69921
H          3.87210       -2.66425       -3.97845
H          6.11301       -2.78795       -2.97213
H          6.48596       -1.94259       -0.69217
H          4.60037       -0.97120        0.58082
C          1.70235       -1.58976        1.43600
C          1.79683       -1.04630        2.69647
C          1.75662       -1.87136        3.80521
C          1.62314       -3.23606        3.64189
C          1.52569       -3.77658        2.37488
C          1.56810       -2.94869        1.26732
H          1.51021       -3.35581        0.26995
H          1.41769       -4.84114        2.24776
H          1.58772       -3.88003        4.50537
H          1.82560       -1.44869        4.79399
H          1.89746        0.02093        2.80699
C          2.23217        1.14571        0.44026
C          3.39655        1.79445        0.10175
C          3.56925        3.13819        0.40301
C          2.52509        3.82445        1.02170
C          1.34699        3.19046        1.34885
C          1.19805        1.82255        1.06951
O          0.00846        1.14089        1.37447
C         -1.18268        1.81831        1.06449
C         -1.33401        3.18792        1.33360
C         -2.50832        3.81969        0.98926
C         -3.54737        3.12800        0.36803
C         -3.37578        1.77985        0.08668
C         -2.21560        1.13273        0.44251
P         -1.84720       -0.57992        0.02448
C         -1.71679       -1.57105        1.52088
C         -1.88099       -2.93406        1.42316
C         -1.86779       -3.71285        2.56645
C         -1.69469       -3.11932        3.80105
C         -1.52627       -1.75215        3.89440
C         -1.53545       -0.97807        2.74919
H         -1.38814        0.08734        2.80554
H         -1.38016       -1.28902        4.85634
H         -1.68306       -3.72491        4.69251
H         -1.99561       -4.78025        2.49267
H         -2.03340       -3.38103        0.45341
C         -3.17158       -1.30911       -0.95316
C         -4.44386       -1.32291       -0.42797
C         -5.47747       -1.90147       -1.14234
C         -5.22647       -2.47177       -2.37435
C         -3.94554       -2.47047       -2.88956
C         -2.91447       -1.89161       -2.17281
H         -1.91005       -1.88778       -2.56403
H         -3.74839       -2.91849       -3.84961
H         -6.03079       -2.92189       -2.93303
H         -6.47534       -1.90937       -0.73559
H         -4.62037       -0.89240        0.54542
Pd        -0.00842       -0.05685       -1.37778
Cl        -1.61521        0.84197       -2.68764
Cl         1.54843        0.94171       -2.67670
H         -4.14452        1.24321       -0.44025
C         -4.78946        3.83363       -0.04495
H         -5.65185        3.16698       -0.00366
H         -4.70015        4.20581       -1.06628
H         -4.99550        4.68337        0.60713
H         -2.61546        4.87048        1.19309
S          0.00158        4.06567        2.10318
H          2.63082        4.87329        1.23603
C          4.81651        3.84625        0.01048
H          4.16812        1.26182       -0.42551
H          5.01678        4.68882        0.67357
H          5.67752        3.17795        0.05395
H          4.73844        4.22921       -1.00779
