111
-148.55678162
P         -1.65614        2.81034        0.05611
P         -0.53658       -0.09715        0.53853
C         -1.61548        2.12867        1.73882
C         -1.19519        0.83024        1.93696
C         -0.49257        4.23601       -0.11775
C          0.62500        3.89541       -1.08113
C         -1.97700        2.90589        2.82060
H         -2.27109        3.93083        2.66425
C         -1.93807        2.37082        4.09672
H         -2.22379        2.97610        4.94148
C         -1.52798        1.06534        4.29015
H         -1.49202        0.65157        5.28446
C         -1.14501        0.29502        3.20680
H         -0.78877       -0.71408        3.34205
Pd        -1.35087        0.98904       -1.32900
Cl        -2.04642        2.25311       -3.04411
Cl        -0.91566       -0.86354       -2.52539
C         -1.40392        5.38666       -0.59129
C         -3.25705        3.64224       -0.35937
H          1.31168        4.73525       -1.21084
H          1.20304        3.03600       -0.73542
H          0.22176        3.64105       -2.06345
H         -1.30230        5.48876       -1.68043
H         -1.05913        6.34468       -0.17380
H         -3.45987        3.39070       -1.40875
C         -2.89788        5.13408       -0.23830
C         -4.40003        3.18261        0.52065
H         -0.10278        4.43600        0.88889
H         -3.09592        5.46537        0.79034
H         -3.56055        5.73961       -0.87549
H         -4.21152        3.42119        1.56774
H         -5.33823        3.66621        0.23925
H         -4.54196        2.10163        0.45179
C         -0.87621       -4.62923        0.72423
C          0.23928       -3.97961        1.31220
C          0.30745       -2.59818        1.23648
C         -0.71053       -1.87019        0.67785
C         -1.84226       -2.48490        0.21125
C         -1.97262       -3.86357        0.25089
O         -0.87622       -6.04119        0.57044
C          1.38904       -4.74664        1.98372
H          1.17397       -2.06862        1.59414
H         -2.61544       -1.86934       -0.21562
C         -3.26811       -4.50502       -0.26976
C          3.75424        1.23497       -0.19579
C          3.17290        0.23623       -1.01849
C          1.86401       -0.13777       -0.76791
C          1.17534        0.37234        0.29952
C          1.76502        1.26264        1.15782
C          3.06730        1.68864        0.95955
O          5.00250        1.81201       -0.55099
C          3.91310       -0.41095       -2.19843
H          1.34146       -0.80358       -1.43269
H          1.18335        1.64006        1.97994
C          3.69756        2.66086        1.96882
C          0.88660       -6.05058        2.62974
C          2.47212       -5.05471        0.93853
C          2.02062       -3.90074        3.11293
C         -3.13314       -4.76167       -1.77855
C         -3.57546       -5.82030        0.46884
C         -4.47371       -3.56652       -0.03584
C         -0.30209       -6.48891       -0.65142
H          0.49762       -6.73937        1.88419
H          1.69037       -6.55997        3.16073
H          0.08802       -5.84315        3.34122
H          2.07762       -5.66429        0.12913
H          2.85808       -4.13403        0.50163
H          3.30743       -5.59107        1.38798
H          1.25835       -3.55573        3.81106
H          2.74806       -4.48665        3.67432
H          2.54587       -3.03112        2.72083
H         -2.31014       -5.43965       -1.99113
H         -4.04453       -5.20055       -2.18362
H         -2.94013       -3.83064       -2.31112
H         -2.80762       -6.56767        0.28594
H         -3.62904       -5.65294        1.54404
H         -4.52693       -6.23967        0.14277
H         -5.40836       -4.06812       -0.28572
H         -4.52800       -3.25822        1.00791
H         -4.41583       -2.67312       -0.65570
H          0.54666       -7.13935       -0.44087
H         -1.03888       -7.06262       -1.21340
H          0.03014       -5.63909       -1.24913
C          4.89540        2.93910       -1.41203
C          5.42793       -0.48334       -1.93514
C          3.42489       -1.86243       -2.41258
C          3.63158        0.39540       -3.47539
C          5.21425        2.42629        2.08821
C          3.41806        4.10612        1.52932
C          3.09562        2.45220        3.37728
H          5.86440        0.50826       -1.84795
H          5.63067       -1.01949       -1.00860
H          5.94226       -0.99948       -2.74541
H          2.39429       -1.89514       -2.76246
H          4.03283       -2.36867       -3.16198
H          3.49040       -2.43326       -1.48678
H          4.13294       -0.04739       -4.33553
H          2.56239        0.42303       -3.68483
H          3.97526        1.42241       -3.37734
H          5.42229        1.39172        2.35905
H          5.72264        2.63405        1.14994
H          5.65191        3.07120        2.84981
H          3.82891        4.30566        0.54273
H          2.34601        4.29515        1.48685
H          3.85757        4.81821        2.22728
H          3.16171        1.40640        3.67626
H          2.05051        2.75599        3.41838
H          3.63002        3.04654        4.11807
H          5.41762        2.73759       -2.34710
H          3.84827        3.16064       -1.62167
H          5.36297        3.80372       -0.94122
