111
-148.55247396
P         -2.02315        2.61100        0.22994
P         -0.35180       -0.06332        0.54597
C         -1.67052        1.95774        1.88362
C         -1.01311        0.75270        2.01412
C         -1.37953        4.32704        0.01209
C         -0.59444        4.41898       -1.27875
C         -2.04423        2.66356        3.00922
H         -2.52288        3.62295        2.90103
C         -1.78143        2.14650        4.26593
H         -2.07670        2.69536        5.14525
C         -1.13711        0.93108        4.39425
H         -0.92845        0.53035        5.37255
C         -0.74221        0.23726        3.26447
H         -0.20979       -0.69649        3.34915
Pd        -1.28902        1.02735       -1.27461
Cl        -2.52880        1.95716       -2.88856
Cl        -0.18299       -0.48494       -2.51741
C         -2.66455        5.17967        0.01991
C         -3.82897        2.89400       -0.08942
H          0.23741        3.71054       -1.29066
H         -1.23360        4.18215       -2.13192
H         -0.19175        5.42282       -1.43484
H         -2.50684        6.08783       -0.58035
H         -2.87440        5.53105        1.04094
H         -4.09203        2.23854       -0.93107
C         -3.88616        4.37751       -0.51066
C         -4.68797        2.55905        1.11137
H         -0.74253        4.55029        0.87824
H         -4.82634        4.82378       -0.15567
H         -3.92008        4.45225       -1.60746
H         -5.75148        2.65996        0.88265
H         -4.51134        1.53657        1.45306
H         -4.47083        3.22919        1.94376
C         -0.82620       -4.59256        0.41142
C          0.13010       -4.01757        1.28731
C          0.26490       -2.63847        1.30006
C         -0.55958       -1.84183        0.54823
C         -1.55862       -2.38864       -0.21381
C         -1.74029       -3.75979       -0.28203
O         -0.84470       -5.99787        0.20511
C          1.02645       -4.87102        2.19910
H          1.03210       -2.16610        1.88876
H         -2.18624       -1.72369       -0.78188
C         -2.88653       -4.31560       -1.14141
C          3.91895        1.37426       -0.10517
C          2.97666        2.20296        0.55673
C          1.68556        1.72770        0.71666
C          1.34781        0.45668        0.32788
C          2.27897       -0.38298       -0.22255
C          3.58593        0.03110       -0.41701
O          5.18047        1.90473       -0.48551
C          3.34294        3.59548        1.09547
H          0.91806        2.34830        1.14514
H          1.96286       -1.36761       -0.51936
C          4.60352       -0.96917       -0.98721
C          2.30386       -5.26403        1.44258
C          1.42962       -4.08040        3.46440
C          0.28416       -6.13297        2.67571
C         -4.07735       -3.32998       -1.16745
C         -2.38657       -4.51463       -2.58054
C         -3.41804       -5.64336       -0.57204
C         -0.01194       -6.43958       -0.85982
H          2.85263       -4.37729        1.12923
H          2.96188       -5.86270        2.07193
H          2.07423       -5.84278        0.55164
H          0.55013       -3.68062        3.96855
H          1.95652       -4.72245        4.16994
H          2.09623       -3.25264        3.22673
H          0.89383       -6.70636        3.37355
H         -0.64498       -5.86507        3.17760
H          0.03673       -6.78590        1.84228
H         -4.37961       -3.06021       -0.15589
H         -3.83415       -2.41694       -1.70881
H         -4.93755       -3.77617       -1.66598
H         -2.03978       -3.57069       -3.00061
H         -1.55633       -5.21570       -2.61665
H         -3.18040       -4.89829       -3.22080
H         -4.27111       -6.00269       -1.14707
H         -2.65701       -6.41905       -0.59456
H         -3.73517       -5.51719        0.46259
H         -0.61992       -6.91801       -1.62731
H          0.52735       -5.59754       -1.29567
H          0.70012       -7.17457       -0.48477
C          5.19849        2.47504       -1.78805
C          3.15034        4.64655       -0.00731
C          2.44304        3.97130        2.29458
C          4.79804        3.62105        1.59805
C          4.54876       -0.92530       -2.52168
C          6.02953       -0.66162       -0.49507
C          4.27112       -2.40423       -0.51960
H          3.40852        5.64192        0.35331
H          3.77323        4.43130       -0.87171
H          2.11460        4.66962       -0.34134
H          1.40945        4.12577        1.98950
H          2.46312        3.19077        3.05471
H          2.78174        4.89808        2.75707
H          5.04346        4.58671        2.03934
H          4.95684        2.85233        2.35356
H          5.49973        3.44206        0.78680
H          3.55093       -1.18010       -2.87811
H          4.78871        0.06711       -2.89616
H          5.25455       -1.63126       -2.95852
H          6.37462        0.30492       -0.85265
H          6.06417       -0.64597        0.59377
H          6.73592       -1.41345       -0.84617
H          5.05505       -3.10028       -0.81720
H          3.34069       -2.76664       -0.95399
H          4.18332       -2.44292        0.56579
H          5.55947        3.50185       -1.73005
H          5.87746        1.91176       -2.42770
H          4.19781        2.46327       -2.22205
