59
-75.80330103
Cl         1.65255        0.24422        2.43917
P          1.65451       -0.32831       -0.78049
P         -1.50991        0.08549       -0.81421
C          0.68849       -0.77484       -2.29084
H          1.33762       -0.65945       -3.16385
H          0.46116       -1.84006       -2.21256
C         -0.57443        0.03505       -2.41117
H         -1.23555       -0.34303       -3.19614
H         -0.34660        1.06896       -2.67836
C          2.97228       -1.62308       -0.54512
H          2.84420       -2.32515       -1.37808
C          2.74565        1.15787       -0.99588
H          2.82944        1.60837        0.00122
C         -2.86256       -1.17921       -0.69710
H         -2.95993       -1.40908        0.37137
C         -2.55377        1.62607       -0.80071
H         -2.35227        2.12994       -1.75382
C          4.29294       -0.84197       -0.69683
H          4.71809       -0.67355        0.30206
H          5.03854       -1.44871       -1.23224
C          4.08762        0.52541       -1.39755
H          4.10204        0.38905       -2.48808
H          4.91772        1.21331       -1.17375
C         -4.09257       -0.39114       -1.17736
H         -4.15565       -0.46777       -2.27195
H         -5.01610       -0.85235       -0.79445
C         -4.00192        1.10076       -0.76238
H         -4.39087        1.21342        0.25864
H         -4.65382        1.72295       -1.39359
C          2.88098       -2.36978        0.78318
H          2.91307       -1.63931        1.60118
H          3.78794       -2.97793        0.90711
C          2.23198        2.19698       -1.98799
H          3.05966        2.86236       -2.27037
H          1.94296        1.69122       -2.91766
C         -2.60637       -2.46413       -1.47887
H         -3.55103       -3.01689       -1.57709
H         -2.31687       -2.20851       -2.50556
C         -2.21607        2.55357        0.36310
H         -2.47765        2.05011        1.30228
H         -1.13049        2.70189        0.41797
C          1.65160       -3.25274        0.91538
H          1.58121       -3.96062        0.08737
H          0.73713       -2.66066        0.91977
H          1.66154       -3.83064        1.84239
C          1.07999        3.01943       -1.43665
H          0.25961        2.37646       -1.12242
H          0.68620        3.72557       -2.17125
H          1.38687        3.59244       -0.55947
C         -1.55826       -3.35144       -0.83078
H         -1.86859       -3.66622        0.16752
H         -0.61545       -2.81963       -0.71671
H         -1.36105       -4.25307       -1.41517
C         -2.92161        3.89812        0.27423
H         -4.00635        3.77758        0.26576
H         -2.67050        4.54882        1.11497
H         -2.64940        4.42545       -0.64208
Cl        -1.64173        0.07592        2.32219
Pd         0.07274       -0.02117        0.87546
