87
-129.18643991
P         -1.55795       -0.30231       -0.37068
P          1.71924        0.40301        0.09032
C         -1.19299        0.93348       -1.62229
C          1.57704       -0.70757       -1.33082
C         -0.12074        0.74072       -2.48463
C          0.15236        1.72280       -3.45775
C         -0.65996        2.84224       -3.53317
C         -1.72080        3.01231       -2.66873
C         -1.98456        2.05211       -1.71213
C          2.31793       -1.86352       -1.25580
C          2.20745       -2.83377       -2.23219
C          1.33399       -2.64723       -3.28070
C          0.56875       -1.49791       -3.37478
C          0.69931       -0.49680       -2.39290
Cl         1.09027        0.00939        3.30194
Cl        -1.55346       -1.59233        2.54367
H         -2.33957        3.89204       -2.73645
H         -2.81508        2.17334       -1.03674
H          2.98347       -2.01342       -0.42163
H          2.79130       -3.73722       -2.16639
H         -0.44804        3.59064       -4.27782
H          1.23158       -3.40631       -4.03764
C         -2.25089       -4.33757       -2.33353
C         -1.33317       -4.23735       -1.29675
C         -1.15603       -3.00216       -0.68559
C         -1.85701       -1.90186       -1.12090
C         -2.75689       -2.00590       -2.15535
C         -2.95954       -3.23197       -2.76152
H         -2.40537       -5.29278       -2.80571
C         -0.57435       -5.42696       -0.82456
H         -0.45879       -2.90308        0.12916
H         -3.28667       -1.12722       -2.48878
H         -3.66474       -3.32214       -3.57143
C         -5.13800        1.03334        2.11173
C         -5.21488       -0.13009        1.37168
C         -4.13388       -0.53801        0.61330
C         -2.98820        0.22187        0.59555
C         -2.90843        1.37879        1.33557
C         -3.98114        1.80041        2.11070
H         -5.97961        1.35355        2.70199
H         -6.11511       -0.72232        1.38803
H         -4.17583       -1.45023        0.04125
H         -2.00615        1.96512        1.31102
C         -3.89032        3.06199        2.89489
C          5.69952       -0.24240        2.20561
C          5.51620        0.86345        1.39928
C          4.30352        1.06185        0.76605
C          3.28504        0.15392        0.94103
C          3.46728       -0.94969        1.74218
C          4.67546       -1.15993        2.39538
H          6.64366       -0.39992        2.69862
H          6.31681        1.57206        1.26376
H          4.14582        1.92274        0.13719
H          2.65872       -1.64858        1.87994
C          4.86478       -2.35966        3.25545
C          0.91417        4.80747       -0.68078
C          1.80170        4.12645       -1.49106
C          2.06403        2.78943       -1.25693
C          1.43498        2.14781       -0.21655
C          0.57696        2.83206        0.61368
C          0.29667        4.17411        0.38907
H          0.69455        5.84376       -0.87340
H          2.27908        4.63225       -2.31423
H          2.73886        2.23703       -1.89127
H          0.14093        2.32688        1.45838
C         -0.68001        4.89623        1.24860
Pd        -0.03447       -0.38812        1.40061
C          1.29425        1.58446       -4.40363
C         -0.37972       -1.35169       -4.51413
H          1.98209        0.79906       -4.08845
H          0.94082        1.34063       -5.40625
H          1.86252        2.51366       -4.46554
H          0.14974       -1.08512       -5.42958
H         -0.91502       -2.28475       -4.69565
H         -1.12526       -0.58052       -4.31774
H         -0.44314       -6.15521       -1.62616
H          0.41771       -5.14266       -0.47027
H         -1.09721       -5.91859       -0.00309
H         -4.63652        3.08890        3.69011
H         -2.90820        3.16180        3.35946
H         -4.04997        3.92976        2.25333
H          5.69044       -2.21993        3.95454
H          3.96686       -2.56454        3.84038
H          5.08109       -3.24077        2.64970
H         -0.67395        4.50244        2.26599
H         -0.44610        5.96029        1.30355
H         -1.69173        4.79304        0.85352
