59
-75.80632505
Cl         1.53723        0.17438        2.38843
P          1.56168       -0.15192       -0.82828
P         -1.66871       -0.11535       -0.83174
C          0.57124        0.30128       -2.32059
H          0.31970        1.36304       -2.28173
H          1.18741        0.14363       -3.21143
C         -0.66940       -0.54748       -2.32205
H         -0.41090       -1.60875       -2.27378
H         -1.28331       -0.39522       -3.21550
C          2.54629       -1.65269       -1.34492
H          2.24749       -1.82644       -2.38750
C          2.98365        0.99698       -0.49157
H          3.20746        0.88325        0.57673
C         -2.89494       -1.41101       -0.32465
H         -3.00089       -1.30687        0.76269
C         -2.86096        1.24019       -1.28298
H         -2.69676        1.44806       -2.34723
C          4.01188       -1.17776       -1.31425
H          4.50199       -1.57312       -0.41585
H          4.57114       -1.60776       -2.15867
C          4.11740        0.36913       -1.31717
H          4.05366        0.74481       -2.34808
H          5.09699        0.70072       -0.93942
C         -4.18239       -0.94268       -1.01915
H         -4.20159       -1.34656       -2.04109
H         -5.06619       -1.36395       -0.51556
C         -4.24972        0.60621       -1.06483
H         -4.65951        0.97659       -0.11528
H         -4.95357        0.94572       -1.83937
C          2.27858       -2.91045       -0.52042
H          2.96112       -3.70298       -0.85733
H          1.27544       -3.28687       -0.75630
C          2.71365        2.47102       -0.80028
H          3.66678        2.96919       -1.02628
H          2.12958        2.54476       -1.72564
C         -2.46858       -2.83345       -0.66287
H         -3.33304       -3.50447       -0.56302
H         -2.18920       -2.88130       -1.72291
C         -2.64150        2.50617       -0.46152
H         -3.51665        3.16193       -0.57098
H         -2.61411        2.23452        0.60190
C          2.41821       -2.71968        0.98121
H          2.22106       -3.64314        1.53065
H          1.71932       -1.97003        1.35085
H          3.41876       -2.38533        1.25801
C          2.02209        3.19908        0.34362
H          1.10443        2.69458        0.64433
H          1.76606        4.22837        0.08254
H          2.65971        3.23445        1.22912
C         -1.33143       -3.31729        0.22096
H         -0.48917       -2.62709        0.17979
H         -0.97232       -4.30702       -0.06994
H         -1.63963       -3.37256        1.26688
C         -1.38255        3.26061       -0.85060
H         -1.41897        3.58265       -1.89309
H         -1.22844        4.14990       -0.23518
H         -0.50258        2.62904       -0.74223
Cl        -1.69812        0.53762        2.30575
Pd        -0.06327        0.16835        0.81542
