59
-75.79868247
Cl         1.43309        0.18771        2.44028
P          1.46105       -0.21956       -0.79906
P         -1.67683        0.12371       -0.85583
C          0.55645       -0.60274       -2.36215
H          1.21717       -0.40398       -3.21079
H          0.36526       -1.67804       -2.36018
C         -0.73150        0.17424       -2.44580
H         -1.37745       -0.17632       -3.25605
H         -0.53416        1.23084       -2.64169
C          2.80274       -1.45379       -0.48431
H          2.99881       -1.94859       -1.44343
C          2.45716        1.34544       -0.78946
H          2.19489        1.86233        0.14197
C         -2.89775       -1.26162       -0.67986
H         -2.89876       -1.52457        0.38550
C         -2.84569        1.56309       -0.83448
H         -2.79049        2.01370       -1.83296
C          3.99726       -0.57335       -0.07928
H          4.00753       -0.47473        1.01507
H          4.94570       -1.06647       -0.34173
C          3.90919        0.83749       -0.72266
H          4.31784        0.79913       -1.74177
H          4.54150        1.55501       -0.17794
C         -4.22734       -0.58106       -1.04484
H         -4.37638       -0.65339       -2.13123
H         -5.07275       -1.12133       -0.59158
C         -4.22348        0.91118       -0.61446
H         -4.48056        0.98178        0.45130
H         -5.00567        1.47564       -1.14414
C          2.39250       -2.48035        0.56457
H          1.44469       -2.94597        0.26413
H          2.17011       -1.95802        1.50386
C          2.16692        2.24507       -1.98464
H          2.40046        1.69736       -2.90674
H          1.09012        2.44840       -2.03249
C         -2.55771       -2.49522       -1.50991
H         -3.45602       -3.11965       -1.61337
H         -2.30629       -2.18177       -2.53079
C         -2.46492        2.59002        0.22540
H         -3.27361        3.32860        0.31660
H         -2.41975        2.08913        1.20119
C          3.44873       -3.55033        0.79665
H          4.38623       -3.11339        1.14507
H          3.66904       -4.09274       -0.12472
H          3.13233       -4.28309        1.54249
C          2.93521        3.55749       -1.93980
H          4.01333        3.38760       -1.93994
H          2.69871        4.12067       -1.03494
H          2.70453        4.19716       -2.79481
C         -1.42932       -3.31308       -0.90099
H         -0.54631       -2.69810       -0.73047
H         -1.13521       -4.15070       -1.53744
H         -1.71767       -3.72203        0.06940
C         -1.14834        3.29322       -0.06765
H         -1.18467        3.81836       -1.02396
H         -0.89449        4.02598        0.70160
H         -0.32345        2.58244       -0.12352
Cl        -1.80495       -0.07486        2.35239
Pd        -0.13543       -0.03577        0.85301
