171
-217.84771592
P         -1.59317        0.45114       -0.32540
P          1.58490       -0.40306       -0.33886
C         -0.86956        1.40191       -1.66849
C          0.85525       -1.32269       -1.69855
C         -0.08863        0.79170       -2.64367
C          0.53554        1.59831       -3.61472
C          0.32422        2.96680       -3.59632
C         -0.47636        3.54956       -2.63721
C         -1.06351        2.76176       -1.66668
C          1.04115       -2.68330       -1.72527
C          0.45538       -3.44536       -2.71713
C         -0.33294       -2.83573       -3.66985
C         -0.53665       -1.46589       -3.65835
C          0.08326       -0.68583       -2.66316
Cl         1.59645        0.40975        2.85481
Cl        -1.57295       -0.32809        2.89196
C         -1.39234       -0.84475       -4.70658
C          1.40810        1.00919       -4.66743
H         -0.64009        4.61476       -2.64152
H         -1.67739        3.21020       -0.90221
H          1.64710       -3.15170       -0.96625
H          0.61227       -4.51119       -2.74475
H          0.79723        3.57802       -4.34642
H         -0.80228       -3.42680       -4.43816
C         -3.78057       -3.33393       -1.48874
C         -2.82256       -3.38966       -0.48374
C         -2.14842       -2.21839       -0.16843
C         -2.42446       -1.05088       -0.83525
C         -3.37447       -1.01043       -1.82585
C         -4.07804       -2.15926       -2.16991
H         -4.32771       -4.22257       -1.74108
H         -1.41502       -2.21184        0.61943
H         -3.56831       -0.07186       -2.31651
C         -4.40718        3.01258        2.13959
C         -4.94207        2.03155        1.31410
C         -4.05967        1.26328        0.56600
C         -2.70694        1.48371        0.63906
C         -2.19570        2.46089        1.45725
C         -3.04007        3.23975        2.23777
H         -5.07517        3.61217        2.73026
H         -4.42063        0.47734       -0.07279
H         -1.12892        2.59832        1.49619
C          4.31482       -3.11764        2.05894
C          2.94057       -3.24267        2.22033
C          2.12218       -2.41716        1.46050
C          2.66535       -1.48136        0.61498
C          4.02611       -1.35390        0.48899
C          4.88237       -2.17847        1.20700
H          4.96410       -3.77071        2.61204
H          1.05124       -2.48888        1.53491
H          4.41512       -0.60095       -0.17241
C          3.88524        3.32100       -1.48003
C          2.92275        3.40096       -0.48085
C          2.21292        2.24861       -0.17447
C          2.46430        1.07437       -0.83897
C          3.41789        1.01042       -1.82498
C          4.15353        2.14064       -2.16356
H          4.45807        4.19489       -1.72666
H          1.46653        2.26274        0.60099
H          3.58678        0.06896       -2.31927
Pd         0.00002        0.04590        1.32105
C         -1.04209       -5.07021        0.04677
C         -2.50626       -4.67063        0.30083
C         -3.41316       -5.84090       -0.12472
C         -2.72237       -4.40965        1.80408
H         -0.76917       -5.95097        0.62773
H         -0.88616       -5.30006       -1.00647
H         -0.36084       -4.26456        0.31544
H         -4.46368       -5.60306        0.04160
H         -3.27506       -6.08163       -1.17864
H         -3.18198       -6.73738        0.45053
H         -2.51078       -5.30369        2.39028
H         -2.07597       -3.61238        2.16795
H         -3.75323       -4.11437        1.99805
C         -5.33397       -0.77489       -3.89898
C         -5.20120       -2.15068       -3.21693
C         -6.53557       -2.47836       -2.52164
C         -4.90974       -3.20808       -4.29844
H         -4.40857       -0.49159       -4.39872
H         -6.12345       -0.79057       -4.65025
H         -5.58581       -0.00025       -3.17500
H         -6.50760       -3.46371       -2.05773
H         -6.75285       -1.74855       -1.74212
H         -7.36030       -2.46726       -3.23402
H         -5.67839       -3.19653       -5.07103
H         -3.94943       -3.02018       -4.77650
H         -4.88053       -4.21163       -3.87607
C         -7.15247        3.10776        0.81485
C         -6.46013        1.80857        1.26565
C         -6.95778        1.41186        2.66744
C         -6.83788        0.68661        0.27759
H         -8.23202        2.97239        0.75080
H         -6.96004        3.92232        1.51208
H         -6.79184        3.41492       -0.16669
H         -8.03165        1.22595        2.66254
H         -6.45903        0.50516        3.00940
H         -6.75828        2.19754        3.39520
H         -7.91795        0.54355        0.24846
H         -6.50980        0.92780       -0.73333
H         -6.38817       -0.26204        0.57035
C         -3.01149        4.01074        4.62462
C         -2.50431        4.30823        3.20105
C         -2.99967        5.69257        2.74736
C         -0.96321        4.32248        3.23370
H         -2.61839        4.73481        5.33802
H         -4.09870        4.05010        4.67669
H         -2.69643        3.01720        4.94316
H         -2.65752        5.91062        1.73572
H         -4.08802        5.74242        2.75044
H         -2.62653        6.47614        3.40660
H         -0.59694        5.06482        3.94259
H         -0.56845        3.35264        3.53644
H         -0.55421        4.57356        2.25641
C          3.10366       -4.20502        4.54232
C          2.36165       -4.27982        3.19331
C          2.52760       -5.68189        2.58417
C          0.86504       -4.02396        3.46339
H          4.15414       -4.47260        4.43899
H          3.05066       -3.19709        4.95346
H          2.66171       -4.88824        5.26741
H          2.00750       -5.75063        1.62876
H          3.57885       -5.90940        2.40928
H          2.12206       -6.44670        3.24627
H          0.48177       -4.71543        4.21351
H          0.70198       -3.01016        3.82910
H          0.27270       -4.16403        2.56136
C          6.82468       -0.95797        0.10479
C          6.40913       -2.07052        1.08806
C          6.97540       -3.40841        0.57871
C          7.00391       -1.74506        2.47044
H          6.45505        0.01331        0.43322
H          7.91008       -0.89035        0.03246
H          6.43970       -1.15483       -0.89555
H          8.05809       -3.35590        0.46530
H          6.75160       -4.22152        1.26828
H          6.54626       -3.66354       -0.39011
H          8.08718       -1.63936        2.41425
H          6.59262       -0.81203        2.85524
H          6.78268       -2.53053        3.19205
C          3.62321        5.81262       -0.06174
C          2.62153        4.69546        0.28757
C          2.70685        4.42527        1.80284
C          1.20511        5.17315       -0.07445
H          3.41422        6.71315        0.51566
H          4.64485        5.50527        0.16109
H          3.56388        6.07901       -1.11679
H          3.69330        4.04777        2.07092
H          2.52772        5.33709        2.37224
H          1.97081        3.68830        2.12060
H          0.93814        6.07030        0.48375
H          1.13989        5.40466       -1.13702
H          0.46502        4.40499        0.14520
C          5.04595        3.19194       -4.26844
C          5.28185        2.10282       -3.20463
C          5.35788        0.73596       -3.91297
C          6.62406        2.35855       -2.49486
H          4.08108        3.05746       -4.75524
H          5.06145        4.18837       -3.82897
H          5.81789        3.15820       -5.03710
H          5.57652       -0.06256       -3.20445
H          4.42183        0.50143       -4.41827
H          6.14823        0.73309       -4.66347
H          6.63388        3.33408       -2.00984
H          6.80508        1.60381       -1.73000
H          7.45241        2.32781       -3.20245
H         -1.76281        0.13176       -4.39166
H          2.29609        1.62207       -4.82179
H         -2.25747       -1.47114       -4.92391
H         -0.83675       -0.71331       -5.63590
H          0.88046        0.94360       -5.61980
H          1.74255        0.00733       -4.39481
