171
-217.84395250
P         -1.65330        0.40285       -0.39312
P          1.60056       -0.35846       -0.38214
C         -0.94246        1.37293       -1.72693
C          0.89465       -1.31451       -1.72315
C         -0.10687        0.77962       -2.66724
C          0.53617        1.60094       -3.61376
C          0.28898        2.96351       -3.60853
C         -0.57019        3.52731       -2.68949
C         -1.17754        2.72651       -1.74272
C          1.13382       -2.66604       -1.76315
C          0.57518       -3.43896       -2.76218
C         -0.23622       -2.84919       -3.70838
C         -0.48828       -1.48712       -3.68425
C          0.10211       -0.69506       -2.68175
Cl         1.59694        0.49787        2.76127
Cl        -1.50950       -0.27071        2.89839
C         -1.34618       -0.87210       -4.73350
C          1.49227        1.04151       -4.60892
H         -0.75878        4.58839       -2.70125
H         -1.83832        3.16141       -1.01068
H          1.76266       -3.11706       -1.01231
H          0.77219       -4.49784       -2.80085
H          0.78350        3.58546       -4.33563
H         -0.68070       -3.44977       -4.48397
C         -3.86340       -3.37998       -1.51674
C         -2.83972       -3.44688       -0.57895
C         -2.14703       -2.27834       -0.29166
C         -2.48414       -1.09795       -0.90588
C         -3.50635       -1.04508       -1.82154
C         -4.22135       -2.19225       -2.14534
H         -4.40336       -4.27559       -1.75533
H         -1.34584       -2.28226        0.42735
H         -3.75983       -0.09809       -2.26827
C         -4.34776        2.77848        2.38086
C         -3.02730        3.18067        2.22241
C         -2.23552        2.46877        1.33178
C         -2.74258        1.39072        0.64882
C         -4.04646        0.99937        0.82792
C         -4.88064        1.69394        1.69533
H         -4.97958        3.30824        3.06853
H         -1.20266        2.73991        1.19129
H         -4.40110        0.13147        0.30120
C          4.22593       -2.87243        2.33523
C          2.85913       -3.12321        2.30505
C          2.08101       -2.37302        1.43353
C          2.64764       -1.39522        0.65373
C          3.99762       -1.15246        0.70649
C          4.81886       -1.89709        1.54313
H          4.85008       -3.43746        3.00159
H          1.01697       -2.53214        1.38553
H          4.40395       -0.36148        0.10247
C          3.95759        3.23336       -1.78526
C          4.28052        1.98329       -2.29809
C          3.52847        0.89471       -1.87131
C          2.51259        1.06663       -0.96335
C          2.20547        2.30873       -0.46740
C          2.91948        3.42560       -0.88254
H          4.54443        4.08213       -2.08431
H          3.73219       -0.09826       -2.23483
H          1.40818        2.39575        0.25008
Pd        -0.01957        0.10925        1.24608
C         -3.50325       -5.85779       -0.09667
C         -2.45400       -4.75231        0.13185
C         -2.34338       -4.50401        1.64983
C         -1.10171       -5.23457       -0.41592
H         -4.48986       -5.53383        0.23438
H         -3.56413       -6.13397       -1.14901
H         -3.24399       -6.75746        0.46140
H         -1.56098       -3.78409        1.88358
H         -3.28194       -4.11639        2.04525
H         -2.10934       -5.42706        2.17989
H         -0.77751       -6.14723        0.08376
H         -1.17241       -5.44047       -1.48362
H         -0.33321       -4.47655       -0.27301
C         -6.45525       -1.13557       -2.56426
C         -5.39997       -2.10432       -3.12779
C         -6.06781       -3.47626       -3.34553
C         -4.90178       -1.58890       -4.48885
H         -6.81611       -1.48362       -1.59678
H         -6.04335       -0.13579       -2.43185
H         -7.31115       -1.05726       -3.23441
H         -6.46538       -3.87255       -2.41134
H         -6.89783       -3.39458       -4.04728
H         -5.36003       -4.19665       -3.75534
H         -4.16582       -2.27274       -4.90986
H         -5.72468       -1.50473       -5.19853
H         -4.44111       -0.60630       -4.39617
C         -2.07765        5.48515        2.00863
C         -2.41747        4.35672        2.99747
C         -1.13654        3.88530        3.71456
C         -3.38952        4.90679        4.05888
H         -1.38688        5.13878        1.24192
H         -2.97721        5.84180        1.50730
H         -1.61728        6.32983        2.52082
H         -0.70198        4.68989        4.30728
H         -1.35504        3.05242        4.38250
H         -0.38007        3.55169        3.00613
H         -4.29495        5.30070        3.59778
H         -3.67193        4.13025        4.76957
H         -2.92845        5.71879        4.62109
C         -6.75120        0.10357        1.03091
C         -6.33278        1.26643        1.95101
C         -7.27494        2.45552        1.68477
C         -6.47075        0.80898        3.41412
H         -7.78997       -0.17577        1.20655
H         -6.65708        0.38759       -0.01653
H         -6.13888       -0.78049        1.20790
H         -7.16299        2.81293        0.66127
H         -8.31606        2.16735        1.82934
H         -7.06588        3.28803        2.35525
H         -5.79654       -0.02184        3.62149
H         -6.22746        1.61613        4.10420
H         -7.48806        0.48113        3.62708
C          3.19206       -4.83496        4.16132
C          2.18061       -4.14962        3.22299
C          1.50111       -5.22902        2.36322
C          1.12413       -3.43086        4.08496
H          3.94957       -5.37583        3.59443
H          3.69098       -4.10567        4.79927
H          2.69141       -5.55319        4.81056
H          2.22957       -5.73313        1.72843
H          1.01698       -5.98004        2.98724
H          0.74179       -4.79157        1.71862
H          0.35321       -2.97034        3.46864
H          0.63439       -4.12726        4.76515
H          1.58536       -2.64302        4.67996
C          6.78680       -0.56035        0.63962
C          6.33022       -1.64406        1.63669
C          7.08833       -2.94601        1.31803
C          6.67558       -1.17484        3.06145
H          6.55495       -0.84991       -0.38517
H          6.30364        0.39412        0.84789
H          7.86356       -0.40414        0.70341
H          6.84502       -3.73260        2.03119
H          6.83206       -3.30599        0.32175
H          8.16613       -2.78790        1.35283
H          7.74118       -0.96709        3.15691
H          6.12970       -0.26446        3.30850
H          6.41484       -1.93136        3.80069
C          5.34037        2.81016       -4.42957
C          5.47764        1.83088       -3.24768
C          5.57376        0.39993       -3.81222
C          6.77024        2.14162       -2.47171
H          5.33165        3.84549       -4.09179
H          6.17211        2.69771       -5.12488
H          4.41810        2.62995       -4.98000
H          5.73771       -0.32703       -3.01712
H          4.66402        0.12767       -4.34689
H          6.40662        0.31465       -4.51007
H          6.76112        3.16025       -2.08509
H          6.88393        1.46492       -1.62544
H          7.64604        2.03303       -3.11120
C          3.80826        5.31716        0.49564
C          2.61675        4.83160       -0.34823
C          1.35298        4.83803        0.53238
C          2.38772        5.79357       -1.52924
H          4.71903        5.36568       -0.10036
H          3.61988        6.31062        0.90223
H          3.99003        4.63915        1.32938
H          0.49203        4.47159       -0.02571
H          1.48601        4.21322        1.41510
H          1.12421        5.84693        0.87532
H          2.12993        6.79138       -1.17467
H          3.27829        5.88238       -2.14992
H          1.57388        5.43966       -2.16098
H         -2.02302       -1.60732       -5.16906
H          1.09606        1.12447       -5.62196
H         -0.74036       -0.46183       -5.54209
H         -1.95048       -0.06288       -4.32100
H          1.70822       -0.00967       -4.41422
H          2.43865        1.58114       -4.57485
