111
-148.55683086
P         -1.80478        2.70105        0.85577
P         -0.40438       -0.12121        0.59957
C         -1.28936        1.80613        2.35099
C         -0.75285        0.54035        2.23925
C         -0.81284        4.24219        0.61958
C          0.03570        4.13588       -0.63001
C         -1.41156        2.39194        3.59478
H         -1.79677        3.39531        3.67429
C         -1.01895        1.69665        4.72557
H         -1.11821        2.15226        5.69727
C         -0.49515        0.42300        4.61068
H         -0.18442       -0.11537        5.49089
C         -0.35132       -0.15331        3.36131
H          0.08919       -1.13156        3.24934
Pd        -1.70740        1.11920       -0.83090
Cl        -2.93110        2.57219       -2.02991
Cl        -1.31807       -0.32436       -2.50464
C         -1.88210        5.35221        0.56530
C         -3.50512        3.42407        0.98746
H          0.61649        5.04587       -0.79830
H          0.73059        3.29494       -0.57165
H         -0.59287        3.97675       -1.50858
H         -2.07435        5.60279       -0.48693
H         -1.49763        6.27696        1.02139
H         -3.96239        3.29498       -0.00219
C         -3.21446        4.91454        1.23880
C         -4.34963        2.74603        2.04562
H         -0.18911        4.34598        1.51689
H         -3.15555        5.08786        2.32210
H         -4.05477        5.53248        0.88696
H         -5.35618        3.16879        2.08264
H         -4.43902        1.67443        1.85310
H         -3.91022        2.86428        3.03639
C         -0.55757       -4.62727        0.00561
C         -1.75156       -3.86699       -0.11550
C         -1.68039       -2.49769        0.08367
C         -0.50710       -1.89970        0.46149
C          0.61645       -2.64605        0.70486
C          0.61552       -4.01973        0.52728
O         -0.51229       -5.96166       -0.47372
C         -3.12073       -4.46951       -0.47238
H         -2.54201       -1.87448       -0.08750
H          1.51467       -2.13576        1.01101
C          1.89309       -4.78968        0.90137
C          3.74991        1.22736       -0.68884
C          3.19040        1.73719        0.51368
C          1.93290        1.29485        0.88884
C          1.21257        0.45023        0.08508
C          1.68956        0.07146       -1.14125
C          2.94123        0.46936       -1.57696
O          5.13003        1.40601       -0.96382
C          3.90110        2.75046        1.42701
H          1.50601        1.60010        1.82824
H          1.05811       -0.53543       -1.76728
C          3.35936        0.07341       -3.00260
C         -3.14788       -5.99975       -0.31485
C         -4.19639       -3.89992        0.47868
C         -3.48016       -4.09391       -1.91991
C          1.66020       -6.30798        0.98809
C          2.98910       -4.49414       -0.13683
C          2.37880       -4.32827        2.29331
C         -0.13750       -6.04121       -1.83921
H         -2.82721       -6.28883        0.68538
H         -4.15069       -6.39375       -0.47819
H         -2.48539       -6.48190       -1.02964
H         -3.92626       -4.08344        1.51821
H         -4.32556       -2.82689        0.34806
H         -5.16358       -4.36723        0.29518
H         -2.75349       -4.49572       -2.62312
H         -4.46096       -4.48315       -2.19158
H         -3.50061       -3.01211       -2.04811
H          0.83788       -6.53230        1.66658
H          1.41281       -6.72594        0.01532
H          2.55028       -6.82195        1.35026
H          3.91396       -5.01245        0.11492
H          2.68564       -4.81383       -1.13187
H          3.20496       -3.42706       -0.18304
H          2.67404       -3.28035        2.29265
H          1.59223       -4.45637        3.03644
H          3.24314       -4.90863        2.61516
H         -0.84638       -5.48967       -2.45434
H          0.85384       -5.61414       -1.98099
H         -0.12770       -7.08633       -2.14931
C          5.93284        0.35917       -0.44390
C          5.08730        3.43555        0.72642
C          2.91311        3.86655        1.83208
C          4.39428        2.03520        2.69545
C          2.20681        0.39336       -3.98091
C          4.59281        0.85237       -3.49052
C          3.65284       -1.43580       -3.04540
H          5.87717        2.72296        0.50097
H          4.76923        3.88943       -0.21155
H          5.51688        4.21615        1.35387
H          2.08375        3.48030        2.42207
H          3.41171        4.62627        2.43344
H          2.50362        4.35592        0.94941
H          3.56363        1.57612        3.23081
H          5.10753        1.24999        2.45272
H          4.88349        2.73555        3.37195
H          2.50465        0.19590       -5.01025
H          1.32306       -0.20925       -3.77883
H          1.92130        1.44237       -3.90843
H          4.42906        1.92575       -3.40158
H          5.47486        0.60027       -2.90680
H          4.81270        0.62661       -4.53370
H          2.77840       -2.01140       -2.74299
H          4.46969       -1.69669       -2.37501
H          3.93004       -1.75046       -4.05111
H          5.83955        0.31957        0.64002
H          5.61570       -0.59673       -0.85792
H          6.97481        0.53957       -0.70902
