59
-75.80386792
Cl         1.68240        0.20069        2.41064
P          1.65134       -0.33783       -0.77332
P         -1.51648        0.09013       -0.81473
C          0.68350       -0.76611       -2.28836
H          1.33524       -0.64916       -3.15925
H          0.44760       -1.83006       -2.21874
C         -0.57261        0.05397       -2.40577
H         -1.23212       -0.30970       -3.19891
H         -0.33630        1.08977       -2.65792
C          2.95784       -1.64828       -0.55642
H          2.80230       -2.35341       -1.38211
C          2.75830        1.13609       -0.98914
H          2.86818        1.57088        0.01238
C         -2.85419       -1.19104       -0.70850
H         -2.95687       -1.42385        0.35884
C         -2.57881        1.61793       -0.81152
H         -2.37712        2.12126       -1.76489
C          4.28564       -0.88575       -0.74131
H          4.74207       -0.73103        0.24590
H          5.00618       -1.49991       -1.30193
C          4.08241        0.48991       -1.42646
H          4.06998        0.36236       -2.51812
H          4.92630        1.16532       -1.21652
C         -4.09012       -0.41767       -1.19754
H         -4.14406       -0.49437       -2.29264
H         -5.01090       -0.89021       -0.82187
C         -4.02053        1.07497       -0.78133
H         -4.41644        1.18223        0.23760
H         -4.67654        1.68941       -1.41589
C          2.88721       -2.38701        0.77755
H          2.95514       -1.65348        1.59048
H          3.78543       -3.01176        0.88086
C          2.23949        2.19605       -1.95575
H          3.06769        2.86202       -2.23520
H          1.93718        1.70921       -2.89127
C         -2.57549       -2.47097       -1.49098
H         -3.51361       -3.03181       -1.60500
H         -2.27358       -2.20885       -2.51247
C         -2.26038        2.55364        0.35095
H         -2.52106        2.04992        1.29020
H         -1.17722        2.71655        0.41129
C          1.64526       -3.24547        0.94760
H          1.54090       -3.95809        0.12732
H          0.74224       -2.63629        0.97066
H          1.66806       -3.81658        1.87860
C          1.09810        3.01389       -1.37620
H          0.27689        2.36947       -1.06689
H          0.70136        3.73716       -2.09231
H          1.41717        3.56701       -0.49067
C         -1.52896       -3.35138       -0.83084
H         -0.59490       -2.80939       -0.69412
H         -1.31014       -4.24552       -1.41906
H         -1.85416       -3.67864        0.15866
C         -2.98306        3.88845        0.25338
H         -4.06607        3.75364        0.23955
H         -2.74508        4.54540        1.09309
H         -2.71279        4.41605       -0.66335
Cl        -1.60632        0.14728        2.36625
Pd         0.06306       -0.00252        0.87528
