111
-148.55334754
P         -2.66465        1.98845        0.64076
P          0.15273        0.50881        0.44965
C         -1.72438        1.60638        2.14872
C         -0.47913        1.02238        2.05739
C         -3.72109        3.48766        0.91503
C         -3.50112        4.54009       -0.14854
C         -2.25612        1.89304        3.39050
H         -3.23910        2.32834        3.46280
C         -1.53401        1.60450        4.53566
H         -1.95022        1.82924        5.50413
C         -0.28283        1.02724        4.43932
H          0.27885        0.80015        5.33048
C          0.24351        0.73033        3.19545
H          1.21067        0.26217        3.10376
Pd        -1.12589        1.70286       -1.06928
Cl        -2.59469        2.69305       -2.43897
Cl         0.41154        1.25341       -2.64296
C         -5.14944        2.90353        0.92870
C         -3.96574        0.72953        0.25626
H         -2.44917        4.82742       -0.21272
H         -3.80097        4.16422       -1.12740
H         -4.08780        5.44026        0.04929
H         -5.85498        3.65071        0.53687
H         -5.46663        2.71270        1.96448
H         -3.68848        0.26688       -0.70113
C         -5.24188        1.58360        0.11218
C         -4.04307       -0.31732        1.34602
H         -3.44750        3.89020        1.89937
H         -6.11608        0.99412        0.42502
H         -5.41023        1.82462       -0.94784
H         -4.29081        0.14209        2.30476
H         -4.80691       -1.06789        1.12929
H         -3.08829       -0.83314        1.46580
C         -1.32281       -3.72010       -0.39661
C         -1.14577       -2.80390       -1.46470
C         -0.65569       -1.54426       -1.17016
C         -0.44013       -1.15102        0.12325
C         -0.70942       -1.99648        1.16695
C         -1.18019       -3.27929        0.94398
O         -1.60782       -5.08481       -0.66796
C         -1.46583       -3.15072       -2.92700
H         -0.42291       -0.84556       -1.95431
H         -0.54225       -1.63803        2.16727
C         -1.49484       -4.18198        2.14691
C          4.69495        0.46842        0.14399
C          4.01500       -0.57711        0.82365
C          2.63176       -0.53130        0.87538
C          1.93782        0.53537        0.36603
C          2.59651        1.60768       -0.17494
C          3.97865        1.62318       -0.27004
O          6.06568        0.32252       -0.19091
C          4.71820       -1.75505        1.51945
H          2.07514       -1.34730        1.30536
H          2.01278        2.43094       -0.55054
C          4.64524        2.89195       -0.82799
C         -0.20559       -3.70791       -3.60556
C         -2.61571       -4.17005       -3.01795
C         -1.92398       -1.88827       -3.69440
C         -1.90807       -3.34008        3.37587
C         -2.66959       -5.12651        1.83466
C         -0.24256       -4.99379        2.51157
C         -0.45191       -5.89063       -0.86024
H         -0.40018       -3.95330       -4.64926
H          0.60230       -2.97716       -3.57548
H          0.14512       -4.60887       -3.10779
H         -2.88444       -4.36622       -4.05562
H         -2.34252       -5.11917       -2.56403
H         -3.50033       -3.79654       -2.50318
H         -1.11185       -1.17411       -3.82095
H         -2.27799       -2.14848       -4.69153
H         -2.73852       -1.38966       -3.16960
H         -2.72598       -2.66451        3.12791
H         -2.24286       -3.98340        4.18930
H         -1.07720       -2.74908        3.75848
H         -3.54863       -4.55816        1.53237
H         -2.42277       -5.81312        1.02859
H         -2.93483       -5.72380        2.70664
H          0.58752       -4.33171        2.75752
H         -0.42986       -5.63527        3.37232
H          0.07233       -5.62545        1.68463
H         -0.46086       -6.31213       -1.86517
H          0.45306       -5.29742       -0.72261
H         -0.45924       -6.71415       -0.14631
C          6.26026       -0.31778       -1.44113
C          4.50329       -3.03718        0.69787
C          6.22521       -1.50945        1.70802
C          4.11379       -1.95197        2.92781
C          4.02426        4.13746       -0.15764
C          6.15633        2.93585       -0.54163
C          4.40578        2.96601       -2.34533
H          4.97293       -3.89302        1.18206
H          3.44151       -3.25573        0.58691
H          4.92801       -2.94152       -0.29951
H          6.39881       -0.56821        2.22842
H          6.68406       -2.30924        2.28887
H          6.74006       -1.46111        0.75153
H          4.18169       -1.03158        3.50716
H          3.06613       -2.24490        2.88233
H          4.64481       -2.73208        3.47274
H          4.53316        5.04574       -0.47940
H          2.97121        4.25072       -0.40935
H          4.10735        4.07187        0.92683
H          6.58881        3.88475       -0.85802
H          6.34932        2.81198        0.52339
H          6.68129        2.14361       -1.06989
H          3.33990        2.97193       -2.57131
H          4.84672        2.11189       -2.85541
H          4.84363        3.87102       -2.76549
H          5.81585       -1.31150       -1.42592
H          5.79266        0.26227       -2.23493
H          7.32895       -0.40355       -1.63882
