171
-217.84463533
P         -1.61995        0.39500       -0.38568
P          1.65021       -0.39296       -0.41444
C         -0.92545        1.35157       -1.73338
C          0.92002       -1.33759       -1.75494
C         -0.12198        0.74224       -2.68961
C          0.47397        1.54398       -3.68117
C          0.21321        2.90432       -3.70105
C         -0.61084        3.48381       -2.75969
C         -1.17135        2.70232       -1.76848
C          1.15847       -2.69001       -1.78941
C          0.56110       -3.47688       -2.75444
C         -0.29638       -2.90181       -3.66791
C         -0.54999       -1.54061       -3.65098
C          0.08705       -0.73216       -2.68957
Cl         1.64596        0.38001        2.73598
Cl        -1.47973       -0.44461        2.83046
C         -1.49491       -0.96602       -4.64820
C          1.34727        0.94270       -4.72551
H         -0.81418        4.54167       -2.79426
H         -1.80611        3.14708       -1.01895
H          1.81324       -3.13369       -1.05653
H          0.75811       -4.53596       -2.78702
H          0.66111        3.51157       -4.46946
H         -0.78253       -3.51352       -4.40919
C         -3.94076       -3.28816       -1.60118
C         -2.93616       -3.41095       -0.64865
C         -2.21534       -2.27170       -0.31705
C         -2.49897       -1.06972       -0.91506
C         -3.49521       -0.96239       -1.85383
C         -4.24100       -2.07844       -2.21608
H         -4.52235       -4.15158       -1.86363
H         -1.43773       -2.31557        0.42644
H         -3.69185        0.00310       -2.28824
C         -4.28940        2.89520        2.29983
C         -2.92874        3.17660        2.25853
C         -2.13680        2.42367        1.40270
C         -2.68422        1.41892        0.64394
C         -4.02850        1.14863        0.70378
C         -4.86304        1.89088        1.52946
H         -4.92384        3.46039        2.95631
H         -1.07687        2.60680        1.34714
H         -4.41893        0.34078        0.11135
C          4.25601       -2.93583        2.28966
C          4.85806       -1.94226        1.52859
C          4.04767       -1.18749        0.68942
C          2.69971       -1.43702        0.61174
C          2.12318       -2.42890        1.36749
C          2.89245       -3.19253        2.23611
H          4.86486       -3.51530        2.95905
H          4.45828       -0.38408        0.10456
H          1.05995       -2.58148        1.29714
C          3.92321        3.34973       -1.55661
C          2.89609        3.43658       -0.62428
C          2.19233        2.27759       -0.32737
C          2.51917        1.08693       -0.92717
C          3.54087        1.01578       -1.84224
C          4.27103        2.15180       -2.17190
H          4.47241        4.23765       -1.80275
H          1.38663        2.30023        0.38607
H          3.77744        0.06483       -2.28966
Pd         0.02118        0.03753        1.21915
C         -2.69112       -4.54129        1.57720
C         -2.60965       -4.73743        0.05095
C         -1.18919       -5.17501       -0.34498
C         -3.59503       -5.85301       -0.34686
H         -2.47294       -5.47076        2.10275
H         -1.98202       -3.79037        1.92184
H         -3.68858       -4.21396        1.86953
H         -0.45883       -4.40496       -0.10128
H         -0.90167       -6.09094        0.17090
H         -1.13202       -5.35956       -1.41720
H         -4.61901       -5.57990       -0.09247
H         -3.54645       -6.05794       -1.41613
H         -3.35997       -6.78009        0.17592
C         -5.51775       -0.59635       -3.84457
C         -5.41169       -1.99538       -3.20641
C         -6.72271       -2.28981       -2.45465
C         -5.21940       -3.03104       -4.33072
H         -4.60199       -0.33493       -4.37385
H         -6.33667       -0.56020       -4.56288
H         -5.71007        0.16630       -3.09019
H         -6.87222       -1.57456       -1.64637
H         -7.58004       -2.22660       -3.12456
H         -6.71120       -3.28816       -2.01856
H         -5.20708       -4.04719       -3.93890
H         -6.02761       -2.96796       -5.05921
H         -4.28035       -2.86480       -4.85670
C         -1.58878        5.29606        2.25439
C         -2.26812        4.24115        3.14543
C         -1.21310        3.56283        4.04093
C         -3.29493        4.94989        4.04884
H         -2.31417        5.76669        1.59104
H         -1.12347        6.07622        2.85657
H         -0.81367        4.84594        1.63725
H         -0.43384        3.08715        3.44679
H         -0.73444        4.28739        4.69926
H         -1.67262        2.79304        4.66036
H         -4.05505        5.45767        3.45542
H         -3.78937        4.24021        4.71188
H         -2.80826        5.69955        4.67267
C         -6.80297        0.49348        0.65726
C         -6.36838        1.60712        1.63122
C         -7.15492        2.88566        1.28770
C         -6.70129        1.15974        3.06592
H         -6.29812       -0.44566        0.88312
H         -7.87581        0.31457        0.72730
H         -6.58023        0.76714       -0.37394
H         -6.92865        3.69114        1.98521
H         -6.90683        3.23163        0.28441
H         -8.22899        2.70475        1.32639
H         -6.13566        0.26647        3.33036
H         -6.45571        1.93664        3.78905
H         -7.76204        0.93123        3.16776
C          6.64813       -1.19401        3.11014
C          6.36243       -1.67459        1.67599
C          6.84481       -0.59330        0.69059
C          7.14629       -2.97008        1.39393
H          7.70764       -0.97809        3.24647
H          6.08641       -0.28620        3.32961
H          6.36294       -1.94803        3.84295
H          6.34447        0.35760        0.87288
H          7.91685       -0.42545        0.79303
H          6.65379       -0.89572       -0.33843
H          8.22036       -2.79800        1.46199
H          6.89074       -3.75367        2.10601
H          6.92696       -3.34191        0.39320
C          2.60432       -3.91988        4.61839
C          2.27770       -4.25997        3.15207
C          2.86210       -5.63681        2.79055
C          0.74559       -4.32087        3.00400
H          2.22506       -2.93083        4.87501
H          2.15085       -4.64227        5.29680
H          3.67849       -3.92365        4.79849
H          2.43422       -6.41919        3.41714
H          2.64986       -5.88317        1.75023
H          3.94312       -5.65445        2.92469
H          0.46466       -4.59505        1.98872
H          0.31971       -5.06637        3.67528
H          0.29029       -3.36017        3.24458
C          3.56701        5.85112       -0.17362
C          2.51427        4.75240        0.06973
C          2.40090        4.52420        1.59075
C          1.16264        5.23169       -0.48251
H          3.63024        6.11100       -1.22998
H          3.30966        6.75987        0.37044
H          4.55213        5.52923        0.16377
H          1.61020        3.81599        1.83310
H          3.33516        4.13176        1.99147
H          2.17608        5.45623        2.10896
H          1.23074        5.41826       -1.55393
H          0.39069        4.48044       -0.32274
H          0.84439        6.15440        0.00232
C          6.46105        1.01581       -2.62677
C          5.44565        2.04425       -3.15748
C          6.17098        3.39283       -3.33313
C          4.92538        1.59092       -4.53200
H          6.01345        0.02657       -2.54039
H          7.31943        0.93451       -3.29339
H          6.82558        1.30997       -1.64291
H          5.49943        4.15096       -3.73566
H          6.56971        3.75032       -2.38387
H          7.00715        3.29425       -4.02532
H          4.22028        2.31815       -4.93280
H          5.74382        1.49029       -5.24469
H          4.42143        0.62754       -4.46545
H         -2.42269       -1.53758       -4.67123
H          2.05452        1.67548       -5.11431
H         -1.06557       -0.98650       -5.65082
H         -1.75217        0.06691       -4.41048
H          0.75609        0.57634       -5.56540
H          1.91968        0.10505       -4.32442
