59
-75.80020162
Cl         1.50627        0.36486        2.43635
P          1.55412       -0.15656       -0.74775
P         -1.62016       -0.04723       -0.81451
C          0.66937       -0.66153       -2.28663
H          1.31306       -0.45562       -3.14648
H          0.55728       -1.74569       -2.23709
C         -0.67073        0.01967       -2.40160
H         -1.28158       -0.40034       -3.20540
H         -0.54734        1.08067       -2.63049
C          2.96209       -1.30760       -0.38304
H          3.14154       -1.85994       -1.31363
C          2.48499        1.44455       -0.87867
H          2.22686        2.01541        0.02170
C         -2.89362       -1.39756       -0.65800
H         -2.77112       -1.79777        0.35617
C         -2.73277        1.43696       -0.69576
H         -2.79503        1.84399       -1.71249
C          4.13031       -0.35011       -0.09022
H          4.17769       -0.17359        0.99332
H          5.08872       -0.82291       -0.35392
C          3.95914        1.00537       -0.82416
H          4.33946        0.91378       -1.85082
H          4.57410        1.78591       -0.35094
C         -4.22488       -0.63184       -0.76170
H         -4.55642       -0.64113       -1.80932
H         -5.01229       -1.15623       -0.19897
C         -4.08397        0.83402       -0.27914
H         -4.16185        0.86608        0.81643
H         -4.91316        1.45417       -0.65256
C          2.68220       -2.28175        0.75706
H          2.46911       -1.70919        1.66836
H          3.60166       -2.84089        0.97964
C          2.13491        2.24630       -2.12780
H          2.39207        1.65267       -3.01442
H          1.04908        2.38703       -2.18112
C         -2.77820       -2.53163       -1.67693
H         -3.73964       -3.06204       -1.72368
H         -2.64218       -2.10298       -2.67733
C         -2.22855        2.51087        0.26344
H         -3.01636        3.26466        0.39985
H         -2.08797        2.06281        1.25515
C          1.54479       -3.24640        0.46939
H          1.72566       -3.81068       -0.44736
H          0.60187       -2.71413        0.34493
H          1.40370       -3.96689        1.27833
C          2.83063        3.59835       -2.17871
H          3.91639        3.48734       -2.17934
H          2.57028        4.20736       -1.31085
H          2.55918        4.16589       -3.07183
C         -1.67250       -3.52264       -1.35888
H         -1.82608       -3.98665       -0.38258
H         -0.70165       -3.03360       -1.33006
H         -1.61301       -4.32440       -2.09857
C         -0.94614        3.18140       -0.19850
H         -1.07351        3.64966       -1.17629
H         -0.61326        3.95493        0.49730
H         -0.13673        2.45779       -0.28947
Cl        -1.76768       -0.14306        2.35467
Pd        -0.06538       -0.05980        0.89673
