111
-148.55246069
P         -2.73635        1.81086       -0.27771
P          0.17823        0.65479        0.15564
C         -1.79878        2.25007        1.21593
C         -0.50835        1.79223        1.37089
C         -3.92703        3.16655       -0.70590
C         -3.75118        3.64980       -2.12822
C         -2.37045        3.03079        2.20114
H         -3.38719        3.36988        2.09110
C         -1.64258        3.35837        3.33216
H         -2.08940        3.96839        4.10021
C         -0.34683        2.90239        3.47997
H          0.21848        3.15442        4.36207
C          0.22021        2.11086        2.49780
H          1.22285        1.72821        2.60621
Pd        -1.15455        0.92314       -1.72394
Cl        -2.67898        1.02793       -3.35943
Cl         0.47281       -0.01537       -2.95291
C         -5.30080        2.51847       -0.43164
C         -3.91075        0.40408       -0.01609
H         -2.72472        3.97368       -2.31462
H         -3.97929        2.85168       -2.83541
H         -4.41744        4.48576       -2.35386
H         -6.04596        2.93067       -1.12758
H         -5.65153        2.79474        0.57360
H         -3.55596       -0.42913       -0.63852
C         -5.24393        0.96876       -0.54720
C         -3.95204       -0.00379        1.44056
H         -3.73076        3.99002       -0.00657
H         -6.08152        0.50771       -0.00351
H         -5.37718        0.67889       -1.60000
H         -4.28063        0.82944        2.06449
H         -4.64129       -0.83530        1.60591
H         -2.96513       -0.30871        1.79394
C         -1.26007       -3.51652        1.28182
C         -0.91939       -3.22752       -0.06407
C         -0.47512       -1.95295       -0.36574
C         -0.32028       -1.00592        0.61101
C         -0.53767       -1.31431        1.92789
C         -0.96378       -2.57719        2.30310
O         -1.93726       -4.72382        1.59883
C         -1.07933       -4.24863       -1.19993
H         -0.25367       -1.67040       -1.37981
H         -0.38644       -0.54426        2.66401
C         -1.12586       -2.89369        3.79767
C          4.72343        0.86895       -0.02655
C          3.95272        1.57762       -0.98706
C          2.57154        1.52680       -0.88803
C          1.96077        0.74248        0.05459
C          2.69952       -0.04204        0.90184
C          4.08363       -0.03492        0.86233
O          6.11447        1.11924        0.09521
C          4.56235        2.37080       -2.15558
H          1.95259        2.09680       -1.56002
H          2.17754       -0.67176        1.60262
C          4.83216       -1.02766        1.76777
C         -2.48874       -4.11999       -1.79798
C         -0.04405       -3.98748       -2.31789
C         -0.84418       -5.68327       -0.69438
C         -2.53206       -2.47948        4.25715
C         -0.89492       -4.38969        4.07801
C         -0.08241       -2.11465        4.63101
C         -3.35477       -4.61130        1.57337
H         -2.63035       -4.82220       -2.61902
H         -3.25338       -4.31773       -1.05048
H         -2.65334       -3.11340       -2.18215
H          0.96466       -3.93943       -1.90862
H         -0.06681       -4.78483       -3.06027
H         -0.24497       -3.05584       -2.84471
H          0.13707       -5.76987       -0.22895
H         -1.58950       -5.97104        0.04294
H         -0.89632       -6.40074       -1.51289
H         -3.30105       -3.00441        3.69511
H         -2.67767       -2.69948        5.31441
H         -2.68635       -1.41060        4.11182
H          0.08363       -4.70137        3.71421
H         -0.94285       -4.60040        5.14609
H         -1.64431       -5.00585        3.58768
H          0.92433       -2.28920        4.25191
H         -0.27236       -1.04248        4.61693
H         -0.10688       -2.42978        5.67393
H         -3.75901       -4.84374        2.55840
H         -3.65141       -3.60113        1.28803
H         -3.76479       -5.32527        0.85919
C          6.40509        2.17830        0.99172
C          3.81976        2.00907       -3.46152
C          4.40926        3.87684       -1.88803
C          6.04791        2.03696       -2.37711
C          6.30803       -1.18847        1.36429
C          4.74664       -0.55231        3.22742
C          4.17722       -2.42264        1.65115
H          2.77802        2.32383       -3.43680
H          4.28434        2.49298       -4.32019
H          3.84050        0.93271       -3.62948
H          4.81212        4.46195       -2.71433
H          3.36059        4.14611       -1.76602
H          4.93530        4.17039       -0.98155
H          6.65383        2.35720       -1.53275
H          6.18616        0.96326       -2.49921
H          6.43405        2.53352       -3.26697
H          6.86103       -0.26461        1.51674
H          6.79454       -1.96502        1.95407
H          6.39131       -1.45763        0.31191
H          3.70908       -0.46952        3.54995
H          5.25066       -1.25107        3.89461
H          5.21171        0.42401        3.35052
H          3.15768       -2.42633        2.03316
H          4.73828       -3.16396        2.21957
H          4.14820       -2.74756        0.61149
H          7.48466        2.32220        1.04024
H          5.93422        3.09810        0.64849
H          6.02845        1.94051        1.98533
