87
-129.18258650
P         -1.80108       -0.27202        0.01024
P          1.50217        0.29657       -0.05153
C         -1.48777        1.09477       -1.13228
C          1.19674       -0.63040       -1.56057
C         -0.55191        1.04129       -2.16368
C         -0.30838        2.20421       -2.92026
C         -1.01476        3.36012       -2.63717
C         -1.94154        3.39378       -1.61894
C         -2.16919        2.25876       -0.86632
C          1.94300       -1.75404       -1.81815
C          1.72228       -2.48359       -2.96951
C          0.74895       -2.07906       -3.85854
C         -0.01643       -0.95014       -3.61716
C          0.21490       -0.20150       -2.44575
Cl         1.22019        1.03725        3.09920
Cl        -1.46914       -0.78710        3.18604
H         -2.47944        4.30266       -1.40441
H         -2.88280        2.28280       -0.05929
H          2.70456       -2.05969       -1.12023
H          2.30546       -3.36749       -3.16951
H         -0.82550        4.24416       -3.22226
H          0.56930       -2.64845       -4.75467
C         -1.23070       -4.45133       -1.68027
C         -0.64541       -4.11720       -0.46674
C         -0.85245       -2.83934        0.03720
C         -1.60875       -1.92570       -0.66043
C         -2.20713       -2.27307       -1.84846
C         -2.01684       -3.54261       -2.36164
H         -1.06597       -5.43412       -2.08795
C          0.22417       -5.08319        0.25776
H         -0.43802       -2.56669        0.99240
H         -2.80062       -1.54415       -2.37713
H         -2.47033       -3.81726       -3.29985
C         -5.89518        0.17003        1.95611
C         -4.84967        0.96724        2.37756
C         -3.60390        0.83702        1.79357
C         -3.41086       -0.09066        0.79626
C         -4.45169       -0.88645        0.37563
C         -5.71370       -0.76341        0.94524
H         -6.86441        0.26347        2.41568
H         -5.00143        1.68516        3.16686
H         -2.77486        1.44030        2.12846
H         -4.28397       -1.61635       -0.39774
C         -6.83081       -1.64600        0.51134
C          4.86651       -1.63898        2.33625
C          3.70767       -2.34722        2.08719
C          2.68646       -1.76408        1.36198
C          2.83372       -0.48236        0.88463
C          3.98599        0.22595        1.13437
C          5.01906       -0.33981        1.87198
H          5.66477       -2.09154        2.89952
H          3.59741       -3.35248        2.45975
H          1.77636       -2.30540        1.16256
H          4.08377        1.23097        0.76061
C          6.27277        0.42106        2.12540
C          2.58886        4.59355       -1.03649
C          1.72529        4.33219        0.00910
C          1.39973        3.02664        0.32343
C          1.93378        1.99745       -0.41519
C          2.80283        2.25177       -1.45042
C          3.13868        3.55978       -1.78201
H          2.84828        5.60964       -1.28057
H          1.30909        5.14381        0.58300
H          0.74679        2.80374        1.15140
H          3.21599        1.42865       -2.01023
C          4.08951        3.84422       -2.89097
Pd        -0.12794        0.05667        1.59880
C          0.69225        2.22329       -4.02381
C         -1.06721       -0.55906       -4.59744
H          0.19942        2.18820       -4.99611
H          1.29344        3.13270       -3.98653
H          1.37562        1.37597       -3.96061
H         -1.73546        0.19895       -4.18724
H         -0.61965       -0.15752       -5.50749
H         -1.67777       -1.41917       -4.87618
H         -0.09414       -6.11119        0.07908
H          1.26108       -4.98886       -0.06830
H          0.19331       -4.90866        1.33429
H         -6.71808       -1.93835       -0.53371
H         -6.86159       -2.55505        1.11356
H         -7.79307       -1.14197        0.61222
H          6.07419        1.49148        2.19641
H          6.74074        0.10913        3.06017
H          6.99106        0.26423        1.31947
H          5.09385        4.02156       -2.50384
H          4.14198        3.00872       -3.59064
H          3.78342        4.72799       -3.45272
