111
-148.55191248
P         -2.26597        2.00227        1.40873
P          0.26114        0.26705        0.65249
C         -1.12421        1.46465        2.70963
C         -0.01020        0.72691        2.37300
C         -2.66254        3.80150        1.58898
C         -2.17787        4.59189        0.39324
C         -1.35222        1.80518        4.02762
H         -2.21488        2.39865        4.28261
C         -0.46896        1.38967        5.00902
H         -0.64744        1.65285        6.03885
C          0.64093        0.63977        4.67006
H          1.32778        0.31476        5.43415
C          0.87113        0.30748        3.34706
H          1.73221       -0.27776        3.06684
Pd        -1.37820        1.30610       -0.61159
Cl        -3.15473        2.23038       -1.62335
Cl        -0.35369        0.69095       -2.50977
C         -4.19490        3.81644        1.78051
C         -3.96778        1.27998        1.50095
H         -1.10346        4.46358        0.24051
H         -2.68128        4.26193       -0.51644
H         -2.37823        5.65957        0.51024
H         -4.61742        4.69507        1.27210
H         -4.43789        3.94866        2.84498
H         -4.04878        0.55750        0.67716
C         -4.86316        2.51229        1.25932
C         -4.21708        0.60369        2.83174
H         -2.14870        4.14002        2.49910
H         -5.84127        2.35782        1.73831
H         -5.07050        2.61528        0.18390
H         -4.17267        1.32833        3.64631
H         -5.20283        0.13357        2.86480
H         -3.46818       -0.16364        3.03438
C         -1.31779       -3.88234       -0.32129
C         -1.77673       -3.21059        0.84168
C         -1.26864       -1.95075        1.11406
C         -0.27871       -1.40847        0.33698
C          0.24875       -2.10165       -0.72032
C         -0.22040       -3.36078       -1.05366
O         -1.99244       -5.04155       -0.78770
C         -2.84160       -3.79990        1.77931
H         -1.65521       -1.36417        1.92900
H          1.01260       -1.62471       -1.30991
C          0.42147       -4.10360       -2.23505
C          4.44900        0.88691       -1.01978
C          4.21283       -0.16497       -0.09451
C          2.92760       -0.32943        0.39681
C          1.92967        0.55391        0.07498
C          2.18866        1.65052       -0.70490
C          3.44635        1.86724       -1.24256
O          5.64433        0.90722       -1.78345
C          5.30321       -1.12708        0.40712
H          2.68736       -1.17202        1.02334
H          1.38013        2.32804       -0.92233
C          3.66243        3.14794       -2.06543
C         -2.82475       -5.33933        1.75667
C         -2.56719       -3.37520        3.23977
C         -4.22523       -3.28081        1.35941
C         -0.28194       -3.68617       -3.53538
C          1.92208       -3.75025       -2.34803
C          0.33351       -5.62911       -2.04918
C         -3.06922       -4.75737       -1.67264
H         -3.53206       -5.74951        2.47708
H         -3.09343       -5.72600        0.77715
H         -1.83253       -5.71574        2.00310
H         -3.25146       -3.87677        3.92373
H         -1.55024       -3.63493        3.53252
H         -2.69886       -2.30498        3.38406
H         -4.25902       -2.19265        1.40311
H         -4.46277       -3.57725        0.33998
H         -5.00435       -3.66954        2.01454
H          0.16444       -4.18089       -4.39754
H         -1.33865       -3.94202       -3.51056
H         -0.20527       -2.60948       -3.68564
H          2.07409       -2.70939       -2.62953
H          2.43149       -3.92816       -1.40177
H          2.40739       -4.36108       -3.10888
H         -0.69905       -5.96907       -2.04175
H          0.84679       -6.15236       -2.85555
H          0.79020       -5.92760       -1.10614
H         -4.00488       -5.11112       -1.24013
H         -3.13788       -3.68393       -1.85402
H         -2.91131       -5.27597       -2.61823
C          5.54095        0.15466       -2.98094
C          5.22565       -1.22579        1.94659
C          5.07522       -2.52174       -0.19869
C          6.72123       -0.64161        0.05943
C          3.06906        4.35474       -1.30518
C          5.15270        3.45118       -2.29750
C          2.94761        3.00691       -3.41997
H          5.31545       -0.23886        2.39964
H          4.28511       -1.66327        2.27710
H          6.02934       -1.84958        2.33706
H          4.10054       -2.91477        0.08781
H          5.11536       -2.49056       -1.28592
H          5.83338       -3.22461        0.14567
H          6.87792        0.37519        0.41781
H          7.47792       -1.28234        0.51162
H          6.88722       -0.64545       -1.01515
H          3.27730        5.28573       -1.83184
H          1.98810        4.27700       -1.20144
H          3.49964        4.42963       -0.30705
H          5.61838        2.68871       -2.91735
H          5.28514        4.40946       -2.79921
H          5.68985        3.48555       -1.35033
H          1.88250        2.82394       -3.28102
H          3.35290        2.17608       -3.99403
H          3.05822        3.91263       -4.01552
H          6.49217        0.19140       -3.51230
H          5.29534       -0.88116       -2.75223
H          4.75828        0.56757       -3.61515
