111
-148.55800093
P         -1.71029        2.73030        0.60939
P         -0.55132       -0.20680        0.46047
C         -1.61344        1.72026        2.11412
C         -1.17804        0.41419        2.03419
C         -0.57487        4.18553        0.71508
C          0.56080        4.05469       -0.27782
C         -1.94997        2.25957        3.33921
H         -2.25458        3.29165        3.40007
C         -1.87268        1.47939        4.47998
H         -2.13874        1.89882        5.43648
C         -1.45038        0.16646        4.39506
H         -1.38605       -0.43943        5.28385
C         -1.09247       -0.36486        3.16915
H         -0.73091       -1.37768        3.09074
Pd        -1.39590        1.24050       -1.12727
Cl        -2.13148        2.86862       -2.49010
Cl        -1.16682       -0.26391       -2.77599
C         -1.50933        5.38394        0.45595
C         -3.33511        3.59606        0.40616
H          1.15942        3.16201       -0.08527
H          0.17487        3.97440       -1.29602
H          1.22581        4.92069       -0.24135
H         -1.42913        5.66906       -0.60203
H         -1.17072        6.26367        1.02385
H         -3.57193        3.53568       -0.66424
C         -2.99210        5.04785        0.78554
C         -4.44140        2.96279        1.22311
H         -0.19862        4.20414        1.74619
H         -3.17197        5.18654        1.86046
H         -3.67564        5.74686        0.27973
H         -4.22164        3.01309        2.28985
H         -5.39532        3.47008        1.06208
H         -4.57000        1.90919        0.96467
C         -0.72823       -4.72065       -0.09592
C          0.24255       -4.14882        0.76917
C          0.27192       -2.76979        0.89954
C         -0.66445       -1.98094        0.28357
C         -1.68077       -2.53720       -0.44744
C         -1.76454       -3.90811       -0.62811
O         -0.61513       -6.07821       -0.49176
C          1.26038       -4.96806        1.58082
H          1.04595       -2.29135        1.47652
H         -2.40064       -1.88030       -0.90570
C         -2.97413       -4.45648       -1.40376
C          3.72869        1.25585       -0.07055
C          3.06901        1.44733        1.17061
C          1.78586        0.94847        1.31553
C          1.14305        0.34255        0.26832
C          1.73443        0.25232       -0.96386
C          3.01324        0.73532       -1.17922
O          5.11034        1.56071       -0.19393
C          3.72842        2.17519        2.35218
H          1.26502        1.03400        2.25267
H          1.15760       -0.17090       -1.76809
C          3.59559        0.69440       -2.60048
C          0.89663       -6.46187        1.64047
C          2.65912       -4.80248        0.96357
C          1.28703       -4.45300        3.03720
C         -2.80971       -4.13134       -2.89795
C         -3.14906       -5.97425       -1.22228
C         -4.26576       -3.78912       -0.88162
C          0.18669       -6.24799       -1.64903
H          1.57327       -7.00500        2.29982
H         -0.11930       -6.59533        2.01058
H          0.95619       -6.92235        0.65726
H          3.40493       -5.35337        1.53604
H          2.68386       -5.17025       -0.06035
H          2.95609       -3.75420        0.94671
H          1.94466       -5.06527        3.65377
H          1.64803       -3.42768        3.09813
H          0.28956       -4.48583        3.47463
H         -1.91852       -4.60258       -3.30760
H         -3.66822       -4.48207       -3.46997
H         -2.71759       -3.05703       -3.05473
H         -3.19513       -6.23198       -0.16478
H         -4.06489       -6.32391       -1.69826
H         -2.32006       -6.52255       -1.66320
H         -5.14535       -4.21729       -1.36171
H         -4.36568       -3.93414        0.19368
H         -4.27787       -2.71888       -1.08053
H          0.22370       -7.30614       -1.90876
H         -0.23484       -5.68719       -2.48153
H          1.19672       -5.88805       -1.46091
C          5.97173        0.46554        0.08933
C          4.50527        1.16063        3.20426
C          4.67157        3.28688        1.85763
C          2.66197        2.85326        3.24250
C          2.47033        0.82897       -3.65270
C          4.56875        1.86388       -2.83515
C          4.31384       -0.64594       -2.81665
H          3.83963        0.38402        3.58041
H          5.28593        0.67492        2.62377
H          4.97458        1.64675        4.05918
H          4.13693        3.98564        1.21495
H          5.09002        3.84669        2.69366
H          5.50198        2.87746        1.28756
H          3.13270        3.46875        4.00873
H          2.01453        3.49744        2.64872
H          2.04069        2.12215        3.75770
H          1.85449        1.70543       -3.45235
H          2.88699        0.93463       -4.65398
H          1.82354       -0.04686       -3.66741
H          4.93030        1.87284       -3.86307
H          4.07720        2.81644       -2.63991
H          5.43548        1.79617       -2.18246
H          5.12835       -0.77527       -2.10782
H          4.72881       -0.70895       -3.82225
H          3.62331       -1.47844       -2.68325
H          5.39056       -0.41140        0.37739
H          6.56955        0.23219       -0.79149
H          6.64940        0.73498        0.89931
