171
-217.84186101
P         -1.49672        0.18847       -0.28432
P          1.68441       -0.65826        0.28113
C         -0.62143        0.90712       -1.68573
C          0.95708       -1.77000       -0.94365
C          0.22147        0.09554       -2.43423
C          0.93783        0.65824       -3.50803
C          0.74078        1.99389       -3.81987
C         -0.11816        2.77906       -3.07900
C         -0.79614        2.23014       -2.00871
C          0.99009       -3.10036       -0.59730
C          0.40372       -4.04841       -1.41331
C         -0.23010       -3.64995       -2.57035
C         -0.29011       -2.31384       -2.92894
C          0.32389       -1.34963       -2.10738
Cl         0.92960       -0.74052        3.45349
Cl        -2.12585       -1.20789        2.67812
C         -1.02522       -1.93176       -4.16596
C          1.88034       -0.16364       -4.31592
H         -0.25662        3.81779       -3.33090
H         -1.46990        2.83439       -1.42640
H          1.46944       -3.39344        0.32531
H          0.43349       -5.09065       -1.14061
H          1.26333        2.41675       -4.66084
H         -0.70097       -4.38121       -3.20562
C         -4.34420       -2.95286       -1.88034
C         -3.58693       -3.25196       -0.75497
C         -2.73715       -2.26968       -0.26523
C         -2.63352       -1.05670       -0.89742
C         -3.36929       -0.78779       -2.02583
C         -4.25284       -1.73173       -2.53647
H         -5.03521       -3.68891       -2.24757
H         -2.15792       -2.43967        0.62380
H         -3.23252        0.15835       -2.51939
C         -4.01926        3.45491        1.64924
C         -4.23295        3.10495        0.32238
C         -3.44859        2.09406       -0.21578
C         -2.47289        1.47824        0.52955
C         -2.27813        1.84344        1.84090
C         -3.05702        2.82952        2.43092
H         -4.61761        4.22754        2.09415
H         -3.59861        1.79143       -1.23721
H         -1.52153        1.34825        2.41911
C          5.69606       -2.43527        1.42155
C          4.87346       -1.96655        2.43947
C          3.63971       -1.44182        2.08398
C          3.24790       -1.39624        0.77131
C          4.06921       -1.87055       -0.22228
C          5.31718       -2.39896        0.08500
H          6.65935       -2.84068        1.66787
H          2.96664       -1.07681        2.83796
H          3.72334       -1.82798       -1.24121
C          2.78423        3.60992       -0.78603
C          1.75487        3.41126        0.12704
C          1.39208        2.10290        0.42105
C          2.04316        1.04661       -0.17331
C          3.07078        1.26474       -1.05774
C          3.46625        2.55639       -1.38065
H          3.08286        4.61133       -1.03230
H          0.60495        1.90966        1.12782
H          3.57500        0.41482       -1.48245
Pd        -0.26788       -0.62111        1.55985
C         -3.37704       -5.72557       -1.10858
C         -3.71194       -4.62625       -0.08364
C         -5.15138       -4.81078        0.42868
C         -2.74462       -4.76438        1.10921
H         -2.36686       -5.59490       -1.49548
H         -3.43883       -6.71431       -0.65434
H         -4.06423       -5.70373       -1.95346
H         -5.26801       -5.77287        0.92721
H         -5.40836       -4.02732        1.14137
H         -5.87042       -4.76853       -0.38863
H         -2.82939       -5.75099        1.56422
H         -1.71012       -4.63458        0.79184
H         -2.96395       -4.02664        1.88072
C         -6.60962       -1.28406       -3.23195
C         -5.16276       -1.42817       -3.73612
C         -5.08800       -2.57295       -4.76511
C         -4.75221       -0.11999       -4.44147
H         -6.68375       -0.48166       -2.49819
H         -7.28945       -1.05614       -4.05272
H         -6.95166       -2.20307       -2.75678
H         -5.43079       -3.51591       -4.34180
H         -5.71285       -2.35607       -5.63140
H         -4.06721       -2.71381       -5.11756
H         -4.86251        0.73809       -3.77903
H         -3.71679       -0.16526       -4.77830
H         -5.37782        0.06078       -5.31544
C         -6.04975        4.88390        0.20030
C         -5.28782        3.78336       -0.56219
C         -6.30127        2.72750       -1.04221
C         -4.59062        4.42320       -1.77780
H         -6.79134        5.35727       -0.44311
H         -6.57565        4.47218        1.06150
H         -5.37040        5.66184        0.54834
H         -7.07362        3.18099       -1.66315
H         -5.81475        1.95058       -1.63045
H         -6.78790        2.24740       -0.19349
H         -5.31059        4.93565       -2.41559
H         -3.84614        5.15099       -1.45528
H         -4.08366        3.67358       -2.38445
C         -1.81736        2.36795        4.60792
C         -2.89652        3.21862        3.90778
C         -4.23362        2.99431        4.63838
C         -2.49433        4.70084        4.00396
H         -1.72613        2.64617        5.65761
H         -2.06706        1.30778        4.56838
H         -0.84133        2.50852        4.14576
H         -5.02448        3.61536        4.21966
H         -4.54566        1.95339        4.55542
H         -4.14518        3.23708        5.69716
H         -2.36107        5.00252        5.04270
H         -1.55756        4.87995        3.47835
H         -3.25317        5.34639        3.56326
C          4.24725       -2.85278        4.69915
C          5.27298       -2.00705        3.92124
C          5.28977       -0.57211        4.48011
C          6.66953       -2.62664        4.11971
H          4.51360       -2.91652        5.75396
H          3.24840       -2.42298        4.63371
H          4.20186       -3.86576        4.29993
H          5.99207        0.04910        3.92462
H          4.30615       -0.10905        4.41028
H          5.58757       -0.56497        5.52841
H          6.93568       -2.64923        5.17643
H          6.70002       -3.65151        3.75026
H          7.43301       -2.04793        3.60012
C          6.58502       -4.40169       -0.73587
C          6.27101       -2.91780       -1.00032
C          7.57230       -2.09547       -0.96690
C          5.65229       -2.79375       -2.40722
H          7.24471       -4.80378       -1.50461
H          7.07481       -4.53799        0.22755
H          5.66984       -4.99352       -0.73287
H          8.07683       -2.19146       -0.00620
H          8.26362       -2.42729       -1.74137
H          7.36374       -1.03840       -1.13087
H          6.33885       -3.16875       -3.16610
H          4.73046       -3.37032       -2.48281
H          5.43091       -1.75444       -2.64907
C         -0.42463        4.61173        0.49039
C          1.06851        4.57776        0.85545
C          1.69014        5.93553        0.47484
C          1.22823        4.38190        2.37465
H         -0.93869        5.41744        1.01391
H         -0.55556        4.77111       -0.57927
H         -0.91292        3.67696        0.75648
H          1.57624        6.13484       -0.59057
H          1.20306        6.74769        1.01449
H          2.75110        5.96449        0.72250
H          0.78687        5.21227        2.92506
H          0.74548        3.46462        2.70750
H          2.28209        4.32105        2.64541
C          5.70183        3.67796       -1.56926
C          4.64994        2.83758       -2.31785
C          4.15372        3.60947       -3.55253
C          5.32365        1.53333       -2.78905
H          5.29761        4.64265       -1.26523
H          6.04088        3.15902       -0.67281
H          6.57101        3.86596       -2.19937
H          3.42214        3.02143       -4.10421
H          3.68281        4.54991       -3.26857
H          4.97851        3.83784       -4.22736
H          5.69976        0.95974       -1.94208
H          4.62679        0.90877       -3.34634
H          6.16823        1.74810       -3.44359
H         -1.99826       -2.42236       -4.19860
H          2.31590       -0.96546       -3.71747
H         -0.47064       -2.22816       -5.05740
H         -1.19824       -0.85619       -4.21577
H          2.70042        0.44344       -4.70173
H          1.37206       -0.61546       -5.16852
