111
-148.55315956
P         -2.66431        1.94278       -0.18103
P          0.07041        0.48277        0.44134
C         -1.93569        2.06614        1.47584
C         -0.71855        1.47049        1.72578
C         -3.50413        3.51926       -0.66870
C         -2.67781        4.31373       -1.65637
C         -2.58814        2.74543        2.48494
H         -3.54933        3.19275        2.29219
C         -2.01162        2.83372        3.74043
H         -2.52020        3.36442        4.52868
C         -0.78769        2.24106        3.98555
H         -0.34052        2.30779        4.96369
C         -0.14082        1.55215        2.97536
H          0.80673        1.06786        3.15331
Pd        -1.01164        1.04495       -1.52999
Cl        -2.39038        1.49992       -3.23895
Cl         0.73969        0.15605       -2.62160
C         -4.86142        3.02807       -1.20449
C         -4.08728        0.76363       -0.28980
H         -1.69849        4.56518       -1.24227
H         -2.50914        3.74327       -2.57035
H         -3.17705        5.24394       -1.93732
H         -4.77769        2.87723       -2.28962
H         -5.63082        3.80389       -1.07168
H         -3.90117        0.14555       -1.17841
C         -5.29150        1.69414       -0.52876
C         -4.18865       -0.09709        0.95089
H         -3.64785        4.09231        0.25603
H         -5.76808        1.91059        0.43722
H         -6.05902        1.18065       -1.12755
H         -5.04442       -0.77423        0.89918
H         -3.28879       -0.70037        1.08712
H         -4.30676        0.52094        1.84284
C         -1.28820       -3.84955        0.82383
C         -0.64729       -3.40809       -0.36170
C         -0.26390       -2.08156       -0.44017
C         -0.41674       -1.23257        0.62321
C         -0.93343       -1.68245        1.80961
C         -1.34837       -2.99566        1.95518
O         -1.90547       -5.12796        0.86480
C         -0.39651       -4.32479       -1.56866
H          0.14603       -1.67870       -1.34951
H         -1.02586       -0.98346        2.62188
C         -1.88837       -3.46346        3.31569
C          4.57911        1.00277        0.10222
C          3.75864        2.13093        0.36181
C          2.38910        1.94044        0.45429
C          1.84603        0.68457        0.38200
C          2.64533       -0.41918        0.24092
C          4.02026       -0.30021        0.13382
O          5.94798        1.18103       -0.23155
C          4.32669        3.55156        0.50529
H          1.72123        2.77673        0.57144
H          2.17464       -1.38509        0.19299
C          4.86705       -1.57543        0.00143
C         -0.17962       -5.78269       -1.12512
C         -1.59068       -4.23281       -2.53058
C          0.88086       -3.89057       -2.32426
C         -1.57474       -4.95185        3.55318
C         -1.22520       -2.67382        4.46716
C         -3.40528       -3.22651        3.37143
C         -3.26141       -5.12797        0.43574
H          0.63957       -5.84779       -0.40976
H         -1.06884       -6.19024       -0.65102
H          0.06145       -6.41945       -1.97594
H         -2.51266       -4.54463       -2.04551
H         -1.72831       -3.20835       -2.87599
H         -1.43826       -4.86601       -3.40416
H          1.72989       -3.82659       -1.64461
H          1.13114       -4.60818       -3.10516
H          0.75610       -2.92327       -2.80836
H         -0.50410       -5.13617        3.47095
H         -1.89830       -5.26736        4.54477
H         -2.07874       -5.58423        2.82652
H         -1.50823       -3.08920        5.43410
H         -0.13899       -2.71512        4.39020
H         -1.53023       -1.62834        4.46753
H         -3.81624       -3.55250        4.32656
H         -3.63503       -2.16831        3.25002
H         -3.91887       -3.76965        2.58183
H         -3.37163       -5.77825       -0.43184
H         -3.89648       -5.51368        1.23314
H         -3.57824       -4.11732        0.17478
C          6.18502        1.33945       -1.62490
C          4.35369        4.22946       -0.87295
C          3.44617        4.39624        1.45432
C          5.74139        3.52649        1.11222
C          4.97174       -1.95888       -1.48264
C          6.27100       -1.37832        0.60113
C          4.21169       -2.74685        0.76883
H          4.73841        5.24641       -0.80069
H          4.98294        3.68098       -1.56972
H          3.35165        4.27654       -1.29869
H          3.91253        5.35955        1.65965
H          2.46785        4.60105        1.02227
H          3.30107        3.88504        2.40570
H          5.73877        3.00742        2.07009
H          6.44483        3.01658        0.45882
H          6.11611        4.53678        1.27466
H          5.44840       -1.17058       -2.06043
H          5.55437       -2.87072       -1.61093
H          3.98229       -2.12696       -1.90736
H          6.83152       -0.62023        0.06019
H          6.20271       -1.06350        1.64189
H          6.84663       -2.30282        0.56325
H          4.00640       -2.46658        1.80163
H          4.86886       -3.61607        0.78218
H          3.27710       -3.06143        0.30726
H          5.24410        1.30829       -2.17587
H          6.68108        2.29297       -1.80535
H          6.83938        0.54290       -1.97856
