58
-89.86885546
P          1.54997       -0.00499        0.82248
C          2.99675        1.04977        0.69184
C          2.86114        2.41891        0.66656
C          3.98524        3.21861        0.56403
C          5.23724        2.64075        0.48909
C          5.36857        1.26637        0.51528
C          4.24251        0.46925        0.61720
H          4.32768       -0.60563        0.63382
H          1.87786        2.85866        0.71153
C          1.92081       -1.66476        0.24223
C          2.10588       -2.70866        1.12016
C          2.38260       -3.97320        0.63252
C          2.47739       -4.18220       -0.72941
C          2.30439       -3.12939       -1.60574
C          2.02920       -1.86705       -1.11447
H          1.90370       -1.02733       -1.77938
H          2.03520       -2.53484        2.18135
C          0.96709        0.01701        2.57033
C         -0.00261        1.16458        2.82578
C         -1.45580        0.83170        2.52122
P         -1.77263        0.23218        0.80474
C         -1.55273       -1.54679        0.61195
C         -1.50716       -2.04408       -0.67113
C         -1.30224       -3.39483       -0.88411
C         -1.14814       -4.24243        0.19405
C         -1.20530       -3.74292        1.47986
C         -1.41041       -2.39157        1.68875
H         -1.47032       -2.00208        2.69086
H         -1.62515       -1.36621       -1.50230
C         -3.42942        0.71924        0.31455
C         -3.75112        2.05609        0.26449
C         -5.02381        2.44293       -0.11654
C         -5.96494        1.48657       -0.44329
C         -5.63739        0.14603       -0.39137
C         -4.36392       -0.23732       -0.01125
H         -4.09304       -1.27977        0.03042
H         -3.00138        2.79196        0.50965
Pd        -0.04714        0.82061       -0.63829
Cl         1.58702        1.28671       -2.10855
Cl        -1.65447        1.55300       -2.02573
H         -1.83242        0.06793        3.20306
H         -2.09195        1.70837        2.66603
H          0.07761        1.49531        3.87318
H          0.30876        2.03249        2.22864
H          0.50876       -0.94196        2.81132
H          1.86834        0.10080        3.18324
H          3.88239        4.29100        0.53796
H          6.34499        0.81468        0.45350
H          2.52098       -4.79495        1.31579
H          2.38334       -3.28918       -2.66844
H         -1.25578       -3.78153       -1.88880
H         -1.08734       -4.40569        2.32140
H         -5.27733        3.48927       -0.16277
H         -6.37068       -0.60045       -0.64892
H          6.11315        3.26344        0.40689
H          2.68959       -5.16844       -1.10883
H         -0.98137       -5.29483        0.03186
H         -6.95589        1.78712       -0.74233
