72
-108.40533522
Cl        -1.80081        0.80440        2.69135
Cl         0.93166       -0.81949        2.76269
P          1.10991       -1.14465       -0.25591
P         -2.25332        0.14060       -0.41674
C         -3.26862       -1.44834       -0.20946
C         -3.65665       -1.60990        1.26179
C         -4.51542       -1.38736       -1.08441
C         -3.31753        1.69950       -0.16958
C         -4.10493        2.01441       -1.44798
C         -1.41239        0.43783       -2.07916
C         -1.46639       -0.72162       -3.05212
C          1.15475        0.20169       -1.47904
C          0.00744        0.96465       -1.97066
C          0.54134        2.05107       -2.79371
C          1.98700        1.93605       -2.82380
C          2.36462        0.77635       -2.03806
C         -2.41208       -2.64497       -0.59875
H         -2.77873       -1.59390        1.90770
H         -4.33492       -0.83104        1.59927
H         -5.20180       -0.61151       -0.74937
H         -5.05671       -2.33414       -1.04689
C         -4.29638        1.56132        0.99231
H         -3.46926        2.42715       -2.23052
H         -4.87247        2.76390       -1.24778
H         -2.00377        1.25177       -2.50860
H         -0.82765       -1.53349       -2.71223
H         -1.09124       -0.42530       -4.03388
H         -2.47759       -1.10250       -3.19055
H         -0.05626        2.75912       -3.37107
H          2.67003        2.57874       -3.38439
Pd        -0.54202       -0.23529        1.16024
H          3.37809        0.42200       -1.83737
C         -2.33943        2.82882        0.11812
H         -4.60272        1.13169       -1.84525
H         -4.77380        2.51925        1.20362
H         -5.09285        0.85548        0.76393
H         -3.79337        1.24464        1.90353
H         -1.56692        2.88234       -0.65033
H         -2.85243        3.79216        0.14853
H         -1.85985        2.68219        1.08474
H         -4.16308       -2.56325        1.42135
H         -4.26456       -1.19184       -2.12596
H         -1.49296       -2.65789       -0.01581
H         -2.93937       -3.57969       -0.40033
H         -2.15625       -2.64304       -1.65506
C          2.77914       -1.26178        0.44359
C          3.21191       -2.25799        1.28322
C          4.54103       -1.97889        1.60089
C          4.86761       -0.82207        0.93775
O          3.79558       -0.37180        0.22309
H          2.62500       -3.08583        1.64491
H          5.18411       -2.55635        2.24478
H          5.82941       -0.32514        0.96784
C          0.71901       -2.74886       -0.97858
C          0.61343       -3.90247       -0.24114
C          0.30614       -4.93088       -1.13305
C          0.23760       -4.36034       -2.38038
O          0.48525       -3.01958       -2.29917
H          0.72546       -3.98579        0.82788
H          0.15197       -5.96948       -0.88997
H          0.01750       -4.88242       -3.30329
Fe         1.36307        2.10755       -0.91087
C          2.24614        3.87721       -0.40640
C          3.02216        2.74888        0.07749
C          2.17288        1.96541        0.95375
C          0.88441        2.61830        1.03510
C          0.91981        3.78814        0.17779
H          2.60387        4.66483       -1.07368
H          4.06425        2.52835       -0.16572
H          2.45827        1.05481        1.48411
H          0.06268        2.29855        1.67773
H          0.11605        4.51671        0.05013
