171
-217.84374755
P         -1.58303        0.41695       -0.27471
P          1.63075       -0.34854       -0.40817
C         -0.91784        1.42305       -1.60339
C          0.87104       -1.27340       -1.74529
C         -0.13954        0.85195       -2.60398
C          0.45080        1.69763       -3.56241
C          0.20266        3.05957       -3.51166
C         -0.59735        3.60117       -2.52823
C         -1.14796        2.77690       -1.56728
C          1.08246       -2.62852       -1.81624
C          0.47260       -3.37531       -2.80469
C         -0.35774       -2.75488       -3.71377
C         -0.58037       -1.38886       -3.66244
C          0.05826       -0.62340       -2.66731
Cl         1.77184        0.45582        2.75279
Cl        -1.38663       -0.31247        2.97160
C         -1.48153       -0.75919       -4.66640
C          1.32540        1.15486       -4.63671
H         -0.78643        4.66196       -2.50358
H         -1.76149        3.19216       -0.78430
H          1.73172       -3.10524       -1.10017
H          0.64366       -4.43777       -2.86346
H          0.64729        3.69908       -4.25549
H         -0.84520       -3.33429       -4.47970
C         -3.87014       -3.26878       -1.54108
C         -4.14732       -2.06140       -2.17089
C         -3.39864       -0.94969       -1.80221
C         -2.42740       -1.05680       -0.83709
C         -2.17236       -2.25440       -0.21781
C         -2.89042       -3.39157       -0.56301
H         -4.45355       -4.12916       -1.80948
H         -3.58125        0.01508       -2.24445
H         -1.42765       -2.29337        0.55899
C         -4.45000        2.75782        2.35372
C         -4.94268        1.72733        1.56219
C         -4.04232        1.04390        0.75793
C         -2.71200        1.38107        0.74565
C         -2.24197        2.40351        1.53234
C         -3.10626        3.11295        2.35707
H         -5.12186        3.29338        2.99767
H         -4.38221        0.22758        0.14515
H         -1.18963        2.62855        1.51406
C          4.21674       -2.88934        2.32202
C          2.88001       -3.22980        2.15629
C          2.12350       -2.46866        1.27502
C          2.67946       -1.40203        0.61245
C          3.99694       -1.06739        0.80605
C          4.79640       -1.81151        1.66479
H          4.82594       -3.46534        2.99265
H          1.08176       -2.69093        1.12026
H          4.38965       -0.20351        0.30019
C          4.01714        3.20422       -1.86307
C          2.98439        3.41465       -0.95739
C          2.26191        2.30916       -0.52664
C          2.55984        1.05827       -1.00531
C          3.57783        0.86654       -1.90680
C          4.33677        1.94228       -2.35146
H          4.59317        4.05209       -2.18234
H          1.46246        2.41202        0.18666
H          3.78982       -0.13220       -2.25114
Pd         0.08665        0.08920        1.31360
C         -5.40380       -0.57302       -3.81113
C         -5.30585       -1.97347       -3.17469
C         -6.62608       -2.26570       -2.43763
C         -5.10094       -3.00804       -4.29740
H         -4.48425       -0.31203       -4.33335
H         -6.21740       -0.53378       -4.53531
H         -5.59982        0.18881       -3.05701
H         -6.62384       -3.26614       -2.00626
H         -6.78056       -1.55365       -1.62716
H         -7.47620       -2.19546       -3.11595
H         -5.09897       -4.02469       -3.90663
H         -5.89718       -2.94038       -5.03854
H         -4.15242       -2.84519       -4.80731
C         -1.14677       -5.12424       -0.09935
C         -2.60415       -4.71117        0.16580
C         -3.52836       -5.84589       -0.31555
C         -2.82405       -4.51133        1.67744
H         -0.45623       -4.34585        0.21978
H         -0.89602       -6.04058        0.43463
H         -0.98462       -5.29735       -1.16267
H         -3.39491       -6.03557       -1.38046
H         -3.30926       -6.77295        0.21415
H         -4.57526       -5.60241       -0.13523
H         -3.85271       -4.21376        1.87978
H         -2.62347       -5.43105        2.22662
H         -2.17126       -3.73605        2.07551
C         -6.98597        1.48417        0.13191
C         -6.41926        1.30794        1.55299
C         -7.25952        2.15656        2.52597
C         -6.52798       -0.17050        1.97278
H         -6.90228        2.52198       -0.19003
H         -6.44813        0.86749       -0.58709
H         -8.03778        1.20146        0.09280
H         -6.90064        2.04962        3.54946
H         -7.22622        3.21181        2.25556
H         -8.30372        1.84459        2.50830
H         -7.56861       -0.49310        2.00012
H         -5.99669       -0.82075        1.27860
H         -6.10072       -0.32085        2.96397
C         -1.10649        4.50037        3.09728
C         -2.60984        4.22411        3.29263
C         -2.84077        3.79095        4.75152
C         -3.38286        5.52416        3.00365
H         -0.51077        3.61616        3.32356
H         -0.89921        4.80687        2.07269
H         -0.77017        5.30051        3.75641
H         -3.89904        3.62814        4.95236
H         -2.31370        2.86056        4.96250
H         -2.48060        4.54938        5.44632
H         -3.25304        5.82542        1.96429
H         -4.44969        5.40223        3.18647
H         -3.02847        6.33704        3.63728
C          2.08702       -5.58575        1.90564
C          2.23747       -4.41498        2.89106
C          0.85245       -4.00654        3.43325
C          3.09749       -4.87403        4.08517
H          1.49812       -5.29167        1.03841
H          3.06195       -5.91460        1.54626
H          1.59502       -6.43574        2.37812
H          0.93279       -3.12641        4.07092
H          0.15921       -3.77343        2.62772
H          0.41068       -4.81094        4.02098
H          4.05660       -5.27133        3.75445
H          3.28312       -4.04752        4.77096
H          2.59432       -5.66376        4.64298
C          7.16073       -2.65404        1.59963
C          6.26299       -1.44971        1.93876
C          6.42134       -1.08249        3.42541
C          6.71949       -0.24942        1.08775
H          7.03739       -2.94359        0.55617
H          8.21159       -2.41442        1.76132
H          6.91832       -3.51758        2.21771
H          7.44911       -0.79827        3.65051
H          5.77380       -0.24498        3.68442
H          6.15731       -1.92011        4.06992
H          6.12956        0.63949        1.31057
H          7.76428       -0.00922        1.28428
H          6.62543       -0.47153        0.02581
C          3.91398        5.32287        0.37002
C          2.69846        4.82897       -0.43460
C          1.46072        4.85291        0.48295
C          2.44119        5.77541       -1.62197
H          4.11780        4.65482        1.20670
H          4.80820        5.36309       -0.25105
H          3.73829        6.32152        0.76955
H          0.57711        4.49450       -0.04401
H          1.61405        4.23097        1.36464
H          1.25340        5.86607        0.82703
H          2.19809        6.77937       -1.27448
H          3.31473        5.85072       -2.26817
H          1.60878        5.41713       -2.22620
C          5.02356        1.00709       -4.58669
C          5.51836        1.69903       -3.30356
C          6.54991        0.79820       -2.60120
C          6.21155        3.01658       -3.70147
H          4.32223        1.64502       -5.12233
H          5.85543        0.79193       -5.25722
H          4.52419        0.06494       -4.36436
H          6.11760       -0.16837       -2.34485
H          7.41273        0.61813       -3.24222
H          6.90418        1.26541       -1.68264
H          7.03705        2.82688       -4.38747
H          5.51539        3.69020       -4.20099
H          6.62046        3.52499       -2.82852
H         -0.97812       -0.64955       -5.62780
H          0.75682        0.97098       -5.54899
H         -1.81342        0.22815       -4.34260
H         -2.37026       -1.36997       -4.82522
H          1.79265        0.21736       -4.33192
H          2.12137        1.85995       -4.87768
