105
-153.07116706
Cl         3.21448        1.34447       -1.26932
Pd         0.99588        1.05986       -1.07428
P         -1.38684        0.94984       -0.86883
N         -1.28119       -0.44078       -1.95372
C         -0.34617       -1.44133       -1.65976
C         -0.25767       -2.05055       -0.37801
C          0.68580       -3.07011       -0.15156
C          0.63599       -3.81298        1.16561
C          1.73805       -4.86718        1.37622
C          2.09635       -5.58417        0.07120
C          2.55046       -4.56885       -0.98657
C          1.56152       -3.44830       -1.17061
C          1.48688       -2.81721       -2.40617
C          0.54924       -1.84838       -2.65323
H          0.50697       -1.36943       -3.61557
H          2.17132       -3.11076       -3.18390
H          3.51912       -4.14331       -0.70212
H          2.86831       -6.34829        0.24080
H          2.63684       -4.38204        1.77210
H          0.65881       -3.07760        1.97882
C         -1.32320       -1.83702        0.63242
C         -1.10015       -1.07960        1.80903
C         -2.04490       -1.14355        2.83295
C         -3.18793       -1.88802        2.70257
C         -3.44897       -2.60360        1.54199
C         -4.73869       -3.38173        1.45882
C         -4.77322       -4.41355        0.32096
C         -4.19925       -3.82106       -0.96925
C         -2.74575       -3.36680       -0.76478
C         -2.51729       -2.57692        0.50182
H         -2.08223       -4.23952       -0.75687
H         -4.80883       -2.96173       -1.27561
H         -5.79552       -4.78357        0.15858
H         -5.56565       -2.67194        1.33873
H         -3.91046       -1.90771        3.50091
H         -1.87558       -0.57157        3.72870
N         -0.01994       -0.22977        1.99613
P          1.38982        0.20824        1.04915
C          2.68808       -0.99640        1.32607
C          3.61662       -1.28594        0.35528
C          4.64123       -2.17370        0.62342
C          4.75457       -2.76441        1.87432
C          3.81588       -2.44997        2.84790
C          2.78748       -1.56562        2.57355
H          2.06067       -1.31339        3.32925
H          3.89095       -2.90639        3.82007
C          5.83557       -3.75012        2.15124
H          5.36634       -2.40677       -0.13759
H          3.55429       -0.79266       -0.59963
C          1.97354        1.75410        1.75315
C          1.04803        2.74041        1.99809
C          1.46029        3.96330        2.49575
C          2.80338        4.20183        2.75467
C          3.72377        3.19615        2.48969
C          3.30905        1.97510        1.99071
H          4.02304        1.19813        1.77126
H          4.76955        3.37854        2.66900
C          3.25355        5.52792        3.26096
H          0.74025        4.74189        2.68152
H          0.00754        2.54891        1.79259
H          0.12804        0.13378        2.92982
H         -1.21408       -0.04855       -2.88415
C         -1.58440        2.48367       -1.78457
C         -0.99822        3.63404       -1.31122
C         -1.15478        4.81888       -2.00675
C         -1.90013        4.85754       -3.17750
C         -2.50224        3.68910       -3.62503
C         -2.34387        2.50416       -2.92912
H         -2.81266        1.59621       -3.27299
H         -3.09523        3.71256       -4.52329
C         -2.08549        6.13729       -3.91592
H         -0.69584        5.72255       -1.64361
H         -0.41711        3.60129       -0.40315
C         -2.87568        0.84877        0.12417
C         -3.93585        0.14099       -0.38800
C         -5.12366        0.07461        0.31748
C         -5.25537        0.72886        1.53475
C         -4.17545        1.45008        2.02773
C         -2.99023        1.51921        1.31823
H         -2.15471        2.08578        1.69403
H         -4.26721        1.95376        2.97481
C         -6.51489        0.61778        2.32076
H         -5.95257       -0.49162       -0.07131
H         -3.82172       -0.36539       -1.33340
Cl         0.69543        1.53472       -3.25546
H          2.71886       -5.06751       -1.94959
H          1.43856       -5.59236        2.14584
H          1.21734       -6.12670       -0.29908
H         -0.34497       -4.29644        1.24510
H         -4.27125       -4.54251       -1.79539
H         -2.42332       -2.76128       -1.62053
H         -4.91599       -3.87523        2.42303
H         -4.18394       -5.29336        0.60883
H          6.10689       -3.75113        3.20784
H          5.51702       -4.75883        1.88429
H          6.73496       -3.51876        1.57886
H          2.48742        5.99265        3.88319
H          4.15725        5.43314        3.86462
H          3.47105        6.20429        2.43324
H         -2.96385        6.67151       -3.55120
H         -1.21978        6.78995       -3.79511
H         -2.21837        5.95958       -4.98398
H         -6.68671        1.51416        2.91824
H         -7.37749        0.48587        1.66609
H         -6.47320       -0.23604        2.99854
