111
-148.55759666
P         -2.65970        2.08921        0.55038
P          0.04787        0.44882        0.49864
C         -1.82338        1.68182        2.10770
C         -0.61815        1.01425        2.07507
C         -3.47965        3.74715        0.62913
C         -2.69868        4.79423       -0.13449
C         -2.38545        2.02638        3.32045
H         -3.33823        2.52922        3.34321
C         -1.73086        1.70889        4.49821
H         -2.16909        1.97790        5.44544
C         -0.51892        1.04618        4.46177
H         -0.01075        0.79707        5.37876
C          0.03721        0.69331        3.24539
H          0.97361        0.15968        3.19851
Pd        -1.13396        1.60857       -1.11680
Cl        -2.55311        2.60311       -2.54193
Cl         0.42497        1.07401       -2.64097
C         -4.88665        3.45629        0.07510
C         -4.12191        1.01456        0.18683
H         -2.61375        4.52452       -1.18777
H         -3.18528        5.77103       -0.08373
H         -1.68488        4.89851        0.25935
H         -4.88514        3.64709       -1.00698
H         -5.61972        4.15955        0.49881
H         -4.01639        0.70265       -0.86099
C         -5.31019        1.98266        0.33925
C         -4.16276       -0.18852        1.10375
H         -3.53880        4.01418        1.69183
H         -5.70990        1.89397        1.35880
H         -6.13399        1.68542       -0.32732
H         -4.20200        0.12208        2.14948
H         -5.03893       -0.81102        0.90806
H         -3.27275       -0.80897        0.97958
C         -1.20469       -3.86209       -0.28046
C         -0.92186       -2.99443       -1.36877
C         -0.52668       -1.69945       -1.08459
C         -0.49707       -1.23158        0.20162
C         -0.89048       -2.02669        1.24563
C         -1.28850       -3.33644        1.03653
O         -1.31818       -5.25919       -0.49848
C         -1.04495       -3.39573       -2.84792
H         -0.22325       -1.03252       -1.87338
H         -0.87266       -1.61491        2.23972
C         -1.79597       -4.13433        2.24929
C          4.58579        0.53315        0.19219
C          3.92599       -0.61764        0.69424
C          2.54328       -0.59976        0.76418
C          1.83156        0.52243        0.42930
C          2.46915        1.67313        0.04822
C          3.85048        1.72271       -0.04799
O          5.97339        0.48190       -0.10655
C          4.67438       -1.89067        1.11925
H          1.99628       -1.47722        1.06409
H          1.86682        2.53067       -0.19748
C          4.52264        3.04236       -0.45784
C         -1.81249       -2.29394       -3.61316
C          0.35953       -3.54455       -3.45581
C         -1.83006       -4.70525       -3.03525
C         -0.60657       -4.48982        3.15686
C         -2.80252       -3.27577        3.04716
C         -2.53244       -5.42110        1.83832
C         -0.07059       -5.92875       -0.42081
H         -2.78116       -2.10776       -3.15024
H         -1.26284       -1.35437       -3.63126
H         -1.98510       -2.58780       -4.64808
H          0.92151       -2.61510       -3.36906
H          0.92678       -4.32379       -2.95042
H          0.30080       -3.80353       -4.51259
H         -2.80443       -4.64136       -2.55216
H         -1.98724       -4.92143       -4.09170
H         -1.29818       -5.54918       -2.60240
H         -0.93883       -5.03968        4.03701
H          0.11923       -5.10660        2.63013
H         -0.09344       -3.59063        3.49672
H         -3.21921       -3.84104        3.88039
H         -2.33726       -2.38321        3.46204
H         -3.62857       -2.96134        2.41020
H         -1.85754       -6.12573        1.35831
H         -2.96664       -5.91921        2.70488
H         -3.33526       -5.19686        1.13682
H          0.61653       -5.52710       -1.16374
H          0.36520       -5.79417        0.56790
H         -0.22115       -6.99240       -0.60654
C          6.26427        0.05920       -1.43305
C          6.06442       -1.55441        1.68862
C          3.89918       -2.63232        2.23292
C          4.80742       -2.82861       -0.09033
C          4.62829        3.10119       -1.98944
C          3.69037        4.25219        0.02458
C          5.91819        3.17767        0.17792
H          6.70193       -1.09696        0.93633
H          5.97914       -0.85778        2.52194
H          6.56888       -2.45159        2.04651
H          2.96453       -3.05258        1.86412
H          4.48720       -3.46070        2.62743
H          3.67100       -1.96031        3.05985
H          5.32381       -3.74829        0.18349
H          3.82527       -3.09593       -0.47997
H          5.36507       -2.35713       -0.89591
H          3.64119        3.03078       -2.44589
H          5.08545        4.03547       -2.31420
H          5.22903        2.28118       -2.37517
H          3.48470        4.18020        1.09226
H          4.22629        5.18474       -0.15082
H          2.74137        4.32564       -0.50438
H          5.85553        3.09264        1.26226
H          6.36614        4.14174       -0.06163
H          6.59391        2.40430       -0.17835
H          6.87367       -0.84389       -1.40453
H          5.34149       -0.14144       -1.97896
H          6.83037        0.83497       -1.94835
