111
-148.55423932
P         -2.70950        1.80144        0.33548
P          0.24658        0.66615        0.19019
C         -1.57116        2.05996        1.72523
C         -0.26788        1.62100        1.63349
C         -3.93876        3.18440        0.23490
C         -3.92815        3.84635       -1.12501
C         -2.00446        2.69126        2.87425
H         -3.02934        3.01500        2.95136
C         -1.12665        2.89033        3.92574
H         -1.46512        3.38342        4.82238
C          0.18106        2.45628        3.82812
H          0.86456        2.60892        4.64712
C          0.60945        1.81484        2.68041
H          1.62245        1.45602        2.59753
Pd        -1.34236        1.20772       -1.43112
Cl        -3.06611        1.37055       -2.84713
Cl         0.16561        0.47840       -2.92988
C         -5.27184        2.48661        0.58031
C         -3.84336        0.35738        0.56325
H         -2.93173        4.21352       -1.38143
H         -4.22822        3.13842       -1.89842
H         -4.62173        4.68950       -1.16677
H         -6.09237        2.97232        0.03229
H         -5.50400        2.62893        1.64601
H         -3.56436       -0.39160       -0.19085
C         -5.22908        0.96441        0.26340
C         -3.71359       -0.21804        1.95657
H         -3.66030        3.91307        1.00770
H         -5.99856        0.42643        0.83638
H         -5.48223        0.80740       -0.79561
H         -4.37959       -1.07176        2.10274
H         -2.69214       -0.54876        2.15388
H         -3.96596        0.53240        2.70804
C         -1.24351       -3.57899        0.89437
C         -0.73762       -2.82320        1.98367
C         -0.29712       -1.53338        1.73800
C         -0.25616       -1.03360        0.46318
C         -0.61139       -1.81209       -0.60598
C         -1.09072       -3.09733       -0.43045
O         -1.94204       -4.79241        1.13175
C         -0.68628       -3.36505        3.42039
H          0.00197       -0.89146        2.54827
H         -0.52284       -1.38660       -1.58973
C         -1.49850       -3.91445       -1.66517
C          4.74998        0.71138       -0.50427
C          3.91690        1.56403       -1.27644
C          2.55009        1.52372       -1.05386
C          2.01537        0.73007       -0.07372
C          2.82567       -0.00953        0.74833
C          4.20209       -0.00282        0.59435
O          6.10402        0.51058       -0.87658
C          4.44034        2.52364       -2.35837
H          1.87872        2.09589       -1.67104
H          2.36750       -0.61122        1.51536
C          5.04254       -0.75357        1.64161
C          0.52431       -2.77177        4.17725
C         -1.97280       -2.97105        4.16173
C         -0.51455       -4.89490        3.43237
C         -1.28865       -5.42072       -1.42880
C         -2.97197       -3.62763       -1.99353
C         -0.63742       -3.52364       -2.88814
C         -3.33569       -4.61904        1.35616
H          0.40791       -1.70338        4.35269
H          0.64098       -3.24499        5.15193
H          1.44564       -2.92817        3.61658
H         -2.85352       -3.36450        3.65935
H         -1.96764       -3.35340        5.18211
H         -2.07432       -1.88720        4.20974
H         -1.37057       -5.39410        2.98553
H          0.37221       -5.18558        2.87008
H         -0.40907       -5.26972        4.45014
H         -0.25484       -5.62517       -1.15243
H         -1.92665       -5.78936       -0.62943
H         -1.52011       -5.99418       -2.32604
H         -3.62129       -3.90582       -1.16680
H         -3.12279       -2.56635       -2.19066
H         -3.29124       -4.18330       -2.87476
H         -0.83329       -4.18984       -3.72793
H         -0.85364       -2.51167       -3.22739
H          0.42421       -3.58668       -2.65104
H         -3.89802       -5.19637        0.62238
H         -3.59584       -4.98403        2.34954
H         -3.60628       -3.56566        1.27376
C          6.27264       -0.57853       -1.76892
C          4.10344        1.95478       -3.74688
C          3.76030        3.90154       -2.19951
C          5.95723        2.75776       -2.25085
C          6.53295       -0.37745        1.57641
C          4.54554       -0.38207        3.05680
C          4.88380       -2.26920        1.43610
H          4.58209        0.99020       -3.90364
H          3.02893        1.81294       -3.85880
H          4.43781        2.62794       -4.53576
H          2.68870        3.84840       -2.38375
H          3.91163        4.29126       -1.19329
H          4.17399        4.62199       -2.90471
H          6.28982        3.51243       -2.96318
H          6.22415        3.09362       -1.24945
H          6.51276        1.84576       -2.45575
H          6.98149       -0.70201        0.64061
H          6.66026        0.70198        1.65080
H          7.09157       -0.84284        2.38815
H          4.57424        0.69737        3.20298
H          3.52447       -0.71825        3.22944
H          5.17147       -0.84145        3.82143
H          3.83878       -2.56653        1.51890
H          5.45052       -2.82458        2.18298
H          5.23800       -2.57247        0.45279
H          5.72169       -0.39581       -2.68991
H          7.33191       -0.69374       -1.99961
H          5.90079       -1.49554       -1.31496
