111
-148.55753627
P         -1.53139        2.70831        1.01958
P         -0.49775       -0.23509        0.46607
C         -1.20171        1.59012        2.40935
C         -0.82289        0.28668        2.16442
C         -0.34285        4.12394        1.00172
C          0.57336        4.03899       -0.20077
C         -1.30471        2.04476        3.70831
H         -1.56582        3.07421        3.89200
C         -1.05092        1.18351        4.76179
H         -1.13481        1.53685        5.77655
C         -0.68521       -0.12578        4.51433
H         -0.48289       -0.79487        5.33445
C         -0.56122       -0.57263        3.21116
H         -0.24534       -1.58210        3.00147
Pd        -1.63552        1.32352       -0.81607
Cl        -2.44120        3.03018       -2.02689
Cl        -1.64162       -0.13866       -2.52263
C         -1.26279        5.36139        1.00828
C         -3.13275        3.62624        1.16089
H          1.16586        3.12215       -0.18785
H         -0.00568        4.03923       -1.12642
H          1.26299        4.88543       -0.23936
H         -1.36227        5.72983       -0.02197
H         -0.79459        6.18373        1.57006
H         -3.54917        3.65112        0.14497
C         -2.67476        5.03630        1.57463
C         -4.10583        2.96212        2.11169
H          0.22514        4.05705        1.93879
H         -2.65569        5.09654        2.67149
H         -3.41113        5.78776        1.25087
H         -4.31767        1.93472        1.80684
H         -3.70407        2.92607        3.12467
H         -5.05283        3.50486        2.15510
C         -0.68536       -4.75293       -0.06422
C         -1.75292       -3.95053       -0.54291
C         -1.68943       -2.58186       -0.33828
C         -0.58825       -2.00589        0.23811
C          0.49388       -2.76467        0.60156
C          0.49283       -4.13931        0.43219
O         -0.80731       -6.16808       -0.05510
C         -2.96849       -4.54314       -1.27353
H         -2.49785       -1.93982       -0.64197
H          1.34889       -2.26117        1.01988
C          1.75197       -4.93912        0.80168
C          3.62752        1.30039       -0.71195
C          3.22363        1.33959        0.64931
C          1.98123        0.82514        0.97888
C          1.13272        0.35382        0.01191
C          1.46856        0.42713       -1.31381
C          2.68917        0.93998       -1.71563
O          4.98055        1.54506       -1.06037
C          4.07607        1.93888        1.78001
H          1.66143        0.78912        2.00584
H          0.74143        0.10421       -2.03938
C          2.92339        1.13272       -3.22302
C         -4.05783       -4.89570       -0.24978
C         -3.54789       -3.52353       -2.28105
C         -2.57383       -5.79377       -2.08021
C          3.02182       -4.07846        0.60717
C          1.66916       -5.36511        2.27518
C          1.90675       -6.17667       -0.10083
C         -1.38073       -6.69318        1.13544
H         -3.70107       -5.63010        0.46833
H         -4.36499       -4.01031        0.30633
H         -4.93823       -5.30721       -0.74276
H         -4.32034       -3.98339       -2.89692
H         -4.00527       -2.67351       -1.77721
H         -2.76899       -3.14899       -2.94473
H         -2.22943       -6.59352       -1.42926
H         -3.41991       -6.17524       -2.65123
H         -1.77016       -5.56171       -2.77824
H          3.07292       -3.26485        1.32930
H          3.92085       -4.67988        0.74006
H          3.05064       -3.65049       -0.39465
H          2.55585       -5.92571        2.57009
H          1.58917       -4.49336        2.92429
H          0.79955       -5.99247        2.45564
H          1.08582       -6.87541        0.03989
H          1.92183       -5.88611       -1.15075
H          2.83266       -6.70806        0.11781
H         -2.28399       -7.25167        0.89046
H         -0.67658       -7.37655        1.60972
H         -1.62734       -5.88678        1.82723
C          5.76486        0.36416       -1.06647
C          3.19863        2.86420        2.65237
C          4.63399        0.80221        2.65193
C          5.23736        2.79537        1.24653
C          1.68880        1.82269       -3.84654
C          4.13705        2.03116       -3.51647
C          3.12559       -0.23862       -3.88766
H          2.40104        2.31724        3.15229
H          3.79458        3.34718        3.42629
H          2.74322        3.64534        2.04478
H          5.22717        1.19820        3.47579
H          3.82727        0.20471        3.07564
H          5.26942        0.13719        2.06983
H          4.86771        3.56448        0.56918
H          5.77023        3.28603        2.06070
H          5.95634        2.18836        0.70135
H          0.79956        1.19772       -3.78539
H          1.47455        2.76161       -3.33687
H          1.85750        2.04315       -4.90014
H          4.04302        2.98486       -2.99823
H          5.06215        1.56318       -3.18817
H          4.22910        2.23116       -4.58373
H          3.99745       -0.74742       -3.48045
H          3.26940       -0.13298       -4.96260
H          2.26016       -0.88063       -3.72632
H          5.77076       -0.08480       -0.07435
H          5.35344       -0.35376       -1.77446
H          6.78619        0.61221       -1.35610
