105
-153.06853914
Cl         0.54137        2.19769        2.94354
Pd        -0.34111        1.39774        1.02493
P         -1.22545        0.75570       -1.01291
N         -0.20390       -0.37205       -1.88630
C          0.31721       -1.63425       -1.63282
C          0.24504       -2.29552       -0.38058
C          0.92553       -3.51839       -0.20287
C          0.84277       -4.20506        1.13949
C          1.89518       -5.30462        1.34977
C          1.99006       -6.21257        0.12023
C          2.37088       -5.40280       -1.12869
C          1.62735       -4.09705       -1.26255
C          1.65054       -3.45122       -2.49102
C          1.01465       -2.25093       -2.67166
H          1.07173       -1.75160       -3.62332
H          2.19695       -3.89771       -3.30456
H          3.44649       -5.19043       -1.11710
H          2.70714       -7.02778        0.29232
H          2.87261       -4.84142        1.53425
H          0.93452       -3.44902        1.92874
C         -0.68176       -1.85665        0.69077
C         -0.17979       -1.25446        1.88039
C         -1.06090       -1.06846        2.95183
C         -2.38018       -1.42878        2.85211
C         -2.88340       -2.02885        1.70363
C         -4.33369       -2.45318        1.70298
C         -4.81888       -3.12653        0.40630
C         -3.70818       -3.94857       -0.25370
C         -2.49669       -3.05931       -0.56575
C         -2.02570       -2.26734        0.62836
H         -1.67036       -3.67117       -0.94788
H         -4.07488       -4.44650       -1.16254
H         -5.15862       -2.36006       -0.29925
H         -4.95157       -1.57401        1.92552
H         -3.04570       -1.25603        3.68090
H         -0.69514       -0.59688        3.84691
N          1.14116       -0.79589        1.99268
P          1.74114        0.23513        0.68652
C          2.92376       -0.68253       -0.30229
C          3.27029       -0.26910       -1.56608
C          4.21928       -0.97890       -2.27909
C          4.83965       -2.08967       -1.72156
C          4.48882       -2.47754       -0.43560
C          3.53607       -1.76900        0.27355
H          3.25344       -2.06258        1.27194
H          4.95948       -3.34023        0.00389
C          5.82649       -2.88058       -2.50715
H          4.48100       -0.67598       -3.27849
H          2.79592        0.60007       -1.99070
C          2.70190        1.62765        1.28593
C          3.54263        1.47969        2.36208
C          4.28885        2.55916        2.79948
C          4.19495        3.78892        2.16097
C          3.35540        3.90943        1.06154
C          2.61081        2.82952        0.62384
H          1.95444        2.92027       -0.22758
H          3.28632        4.85488        0.55121
C          5.01106        4.94639        2.62092
H          4.94927        2.45252        3.64301
H          3.61384        0.52276        2.85369
H          1.36079       -0.30645        2.85125
H         -0.22504       -0.07570       -2.85427
C         -1.00542        2.35160       -1.80196
C         -2.00907        3.29033       -1.77415
C         -1.79477        4.53901       -2.32874
C         -0.57383        4.85482       -2.91068
C          0.43276        3.89843       -2.91278
C          0.21489        2.64941       -2.36034
H          0.99411        1.90519       -2.35410
H          1.38896        4.13936       -3.34506
C         -0.33098        6.21010       -3.47786
H         -2.57438        5.28106       -2.30391
H         -2.94904        3.04817       -1.30508
C         -2.93593        0.28938       -1.29304
C         -3.91487        0.55222       -0.36546
C         -5.23113        0.23416       -0.63749
C         -5.57878       -0.35571       -1.84492
C         -4.58150       -0.59769       -2.77962
C         -3.26507       -0.27167       -2.50456
H         -2.48987       -0.45560       -3.23100
H         -4.84222       -1.04063       -3.72559
C         -6.99828       -0.68860       -2.14703
H         -5.99871        0.44549        0.08729
H         -3.64675        1.02926        0.56111
Cl        -2.31363        2.27762        1.65345
H          2.20143       -6.00018       -2.03372
H          1.67269       -5.89188        2.25189
H          1.02173       -6.70201       -0.04409
H         -0.16266       -4.62726        1.25354
H         -3.40129       -4.75551        0.42350
H         -2.74287       -2.36644       -1.37581
H         -4.48788       -3.13648        2.54682
H         -5.70137       -3.75247        0.59967
H          6.56021       -3.35524       -1.85416
H          5.32657       -3.66470       -3.07758
H          6.36944       -2.24690       -3.20977
H          5.97555        4.96738        2.11176
H          4.50292        5.89047        2.41956
H          5.19756        4.89446        3.69447
H          0.10036        6.87242       -2.72605
H          0.35797        6.16535       -4.32252
H         -1.25890        6.66171       -3.83152
H         -7.06797       -1.57365       -2.78108
H         -7.55863       -0.89187       -1.23331
H         -7.48775        0.13693       -2.66547
