72
-108.40372437
Cl        -1.74424        0.75260        2.75663
Cl         0.96900       -1.00674        2.71117
P          1.11374       -1.10248       -0.30557
P         -2.24136        0.08419       -0.38038
C         -3.22707       -1.52089       -0.15538
C         -3.58290       -1.69661        1.32264
C         -4.49227       -1.47751       -1.00461
C         -3.32889        1.62170       -0.09344
C         -4.15321        1.93572       -1.34902
C         -1.47115        0.40606       -2.07022
C         -1.51191       -0.75394       -3.04333
C          1.10806        0.25685       -1.51365
C         -0.06939        0.97665       -1.99169
C          0.41984        2.09316       -2.79984
C          1.86664        2.02312       -2.86054
C          2.29097        0.87578       -2.08206
C         -2.35803       -2.70047       -0.56639
H         -2.69362       -1.66343        1.95202
H         -4.27267       -0.93546        1.67652
H         -5.18455       -0.71469       -0.65217
H         -5.01661       -2.43348       -0.96034
C         -4.27734        1.45680        1.09007
H         -4.93628        2.66031       -1.11945
H         -4.63538        1.04626       -1.75059
H         -2.10029        1.19984       -2.48300
H         -0.84065       -1.54572       -2.71982
H         -1.16932       -0.44520       -4.03311
H         -2.51351       -1.16641       -3.15888
H         -0.20849        2.78654       -3.36125
H          2.52020        2.69462       -3.42156
Pd        -0.50829       -0.25069        1.18993
H          3.31759        0.55349       -1.89634
C         -2.36438        2.76547        0.18101
H         -3.54646        2.37961       -2.13756
H         -3.74830        1.13755        1.98539
H         -4.76282        2.40548        1.32355
H         -5.06936        0.74254        0.87263
H         -1.85771        2.61736        1.13334
H         -1.61318        2.84064       -0.60651
H         -2.89349        3.71904        0.23470
H         -4.06424       -2.66193        1.48766
H         -4.26625       -1.27320       -2.05009
H         -1.43112       -2.70162        0.00415
H         -2.86705       -3.64516       -0.36733
H         -2.11674       -2.68631       -1.62600
C          2.80468       -1.19025        0.34824
C          3.30000       -2.21713        1.11316
C          4.62461       -1.90265        1.41586
C          4.88632       -0.69457        0.81884
O          3.77846       -0.24695        0.15931
H          2.75851       -3.09178        1.43280
H          5.30756       -2.49160        2.00605
H          5.82742       -0.16002        0.85762
C          0.75457       -2.70956       -1.03920
C          0.67250       -3.86722       -0.30509
C          0.38978       -4.89977       -1.20030
C          0.31226       -4.32755       -2.44634
O          0.53081       -2.98199       -2.36114
H          0.78322       -3.94972        0.76424
H          0.25758       -5.94208       -0.96020
H          0.10624       -4.85188       -3.37123
Fe         1.27132        2.18423       -0.88764
C          0.86328        2.64063        1.08392
C          0.83704        3.81812        0.23468
C          2.14718        3.97388       -0.37190
C          2.95262        2.84143        0.05042
C          2.16994        2.03268        0.96563
H          0.06856        2.28804        1.74343
H          0.00755        4.52335        0.14357
H          2.46001        4.77762       -1.04218
H          3.99224        2.65414       -0.22869
H          2.49830        1.12034        1.46697
