115
-277.94140079
P         -2.33009       -0.19079        0.44993
P          1.36543       -0.36988        0.42219
C         -2.09714        1.55924       -0.03632
C         -2.18887        1.78486       -1.39480
H         -2.44475        0.96849       -2.05216
C         -1.87115        3.01721       -1.92664
H         -1.87538        3.18467       -2.99226
C         -1.46025        4.04028       -1.09794
C         -1.41441        3.82628        0.26614
H         -1.06981        4.62448        0.90304
C         -1.73922        2.59671        0.79324
H         -1.68770        2.45119        1.85242
C         -3.89666       -0.78467       -0.19514
C         -4.11403       -2.14067       -0.25411
H         -3.34113       -2.82147        0.06527
C         -5.32327       -2.62086       -0.71196
H         -5.51630       -3.68073       -0.75396
C         -6.31775       -1.74629       -1.10768
C         -6.09075       -0.38562       -1.03770
H         -6.88349        0.28475       -1.33022
C         -4.87969        0.09592       -0.58277
H         -4.70571        1.15755       -0.51585
C         -2.00598       -1.04034        2.02908
C         -1.25618       -2.19484        1.89669
H         -0.85553       -2.46080        0.93296
C         -0.86576       -2.93262        3.01433
C         -1.45835       -2.61704        4.23323
H         -1.20527       -3.19374        5.10712
C         -2.23250       -1.48114        4.36576
H         -2.58021       -1.18690        5.34131
C         -2.42679       -0.61563        3.29033
C          1.04944       -0.38385        2.22186
C          0.28479        0.70717        2.58206
H         -0.04252        1.36986        1.80020
C         -0.18353        0.86986        3.88991
C          0.36410        0.04506        4.86847
H          0.06426        0.17405        5.89497
C          1.14538       -1.03841        4.51956
H          1.44669       -1.73985        5.27917
C          1.39376       -1.34607        3.18282
C         -2.73286        0.83211        3.57862
H         -3.58339        0.89294        4.26596
H         -3.08800        1.29981        2.65693
C         -1.48641        1.58684        4.17131
H         -1.42996        2.62304        3.82519
H         -1.59515        1.66916        5.25808
C          0.41888       -3.72213        2.98505
H          0.39305       -4.45769        2.17348
H          0.48831       -4.31871        3.90113
C          1.67487       -2.79422        2.85106
H          2.49893       -3.16352        3.47195
H          2.05609       -2.85972        1.83656
C          2.41020       -1.78427        0.00614
C          1.85594       -2.92381       -0.54149
C          3.69339       -1.81095        0.51425
C          2.53833       -4.12045       -0.46737
C          4.36890       -3.01299        0.60154
C          3.76505       -4.18574        0.17203
C          2.32064        1.11460        0.03842
C          2.28146        1.74318       -1.18474
C          3.13931        1.59812        1.03314
C          3.06283        2.85877       -1.41227
H          1.65733        1.35323       -1.97118
C          3.92787        2.70554        0.80210
H          3.16526        1.10449        1.99192
C          3.89085        3.34822       -0.42029
H          3.02497        3.38060       -2.35827
H          4.59387        3.07462        1.56478
Pd        -0.50173       -0.67854       -0.97685
Cl        -2.10380       -1.31032       -2.42379
Cl         1.06838       -0.74645       -2.58538
H          5.31677       -3.06983        1.11187
H          4.12115       -0.91693        0.93902
H          2.07524       -5.04215       -0.78425
H          0.85956       -2.90541       -0.94981
C         -1.25425        6.54530       -0.87341
C         -0.87204        5.28560       -1.70516
C          0.66590        5.06180       -1.79163
F         -0.66905        6.48764        0.33099
F         -0.86178        7.64502       -1.53502
F         -2.58770        6.54420       -0.72819
F         -1.33542        5.45774       -2.94603
F          0.87393        4.01061       -2.59652
F          1.25637        6.15739       -2.29045
F          1.13378        4.77935       -0.56768
C         -7.53848       -3.47028       -2.48110
C         -7.67680       -2.25407       -1.51790
C         -8.47748       -2.60517       -0.23083
F         -7.01813       -4.51253       -1.81831
F         -8.74729       -3.78241       -2.97314
F         -6.71463       -3.10781       -3.47580
F         -8.34647       -1.29764       -2.16696
F         -7.78798       -3.50497        0.48577
F         -8.61456       -1.47379        0.47677
F         -9.68126       -3.08990       -0.56973
C          5.05634        5.38203        0.53514
C          4.82719        4.49226       -0.72397
C          6.15686        3.89299       -1.26463
F          5.74895        4.69374        1.45328
F          5.72639        6.48832        0.17586
F          3.85513        5.71222        1.03365
F          4.31364        5.26827       -1.68262
F          6.64437        3.02259       -0.36769
F          5.86957        3.25126       -2.40734
F          7.03503        4.88082       -1.49399
C          5.74532       -5.60390        0.88665
C          4.20176       -5.52835        0.70514
C          3.42285       -5.73343        2.04452
F          6.13274       -4.74197        1.83683
F          6.08641       -6.85742        1.22349
F          6.30897       -5.27044       -0.28392
F          3.83680       -6.49878       -0.13626
F          3.76022       -6.90979        2.58937
F          3.70417       -4.72224        2.87628
F          2.11388       -5.70725        1.75759
