59
-75.80077022
Cl         1.69436        0.08113        2.31298
P          1.59690       -0.12262       -0.86918
P         -1.61007       -0.03868       -0.83664
C          0.59654        0.19529       -2.38611
H          0.34204        1.25747       -2.43396
H          1.19913       -0.04300       -3.26848
C         -0.64099       -0.64899       -2.28447
H         -0.38343       -1.69957       -2.12561
H         -1.26570       -0.59216       -3.18181
C          2.67091       -1.60109       -1.23132
H          2.59151       -1.72125       -2.32051
C          2.93048        1.13161       -0.55294
H          2.97094        1.25820        0.53592
C         -2.93120       -1.21844       -0.27991
H         -3.00348       -1.09738        0.80773
C         -2.70111        1.33250       -1.47206
H         -2.58028        1.27946       -2.56269
C          4.08925       -1.11325       -0.89091
H          4.33453       -1.39450        0.14056
H          4.83249       -1.62770       -1.51876
C          4.20581        0.42635       -1.04267
H          4.36852        0.68146       -2.09887
H          5.08689        0.81027       -0.50619
C         -4.20033       -0.66716       -0.94917
H         -4.31189       -1.13510       -1.93701
H         -5.09429       -0.96227       -0.37873
C         -4.12407        0.87413       -1.10732
H         -4.43139        1.34915       -0.16778
H         -4.84464        1.22698       -1.86054
C          2.25066       -2.90450       -0.55180
H          2.93818       -3.70162       -0.86695
H          1.27036       -3.20679       -0.94266
C          2.66091        2.47774       -1.21461
H          3.58019        3.07959       -1.19526
H          2.44662        2.31474       -2.27864
C         -2.62292       -2.67293       -0.61175
H         -3.52698       -3.27809       -0.45658
H         -2.40284       -2.75540       -1.68378
C         -2.33107        2.73639       -0.99334
H         -1.33881        2.99305       -1.38586
H         -3.01492        3.45818       -1.46112
C          2.20226       -2.85174        0.96670
H          3.17824       -2.62836        1.39893
H          1.87004       -3.79944        1.39706
H          1.51521       -2.08248        1.31623
C          1.52876        3.24140       -0.54657
H          1.30263        4.17867       -1.05993
H          1.77322        3.48345        0.48958
H          0.61584        2.64707       -0.52281
C         -1.47786       -3.22905        0.21858
H         -0.58110       -2.62120        0.10222
H         -1.22437       -4.25447       -0.05962
H         -1.72354       -3.22639        1.28231
C         -2.35042        2.92833        0.51502
H         -1.67573        2.23455        1.01408
H         -2.04317        3.93708        0.80090
H         -3.34348        2.76517        0.93514
Cl        -1.64276        0.19136        2.32900
Pd         0.01966        0.15986        0.82385
