75
-122.80673209
P          1.89437       -0.11091        0.09533
C          1.85154       -0.61832       -1.63339
C          1.75824        0.31841       -2.63679
C          1.72506       -0.08867       -3.95758
C          1.77809       -1.43389       -4.26475
C          1.85933       -2.37201       -3.25514
C          1.89469       -1.95951       -1.93687
H          1.93765       -2.67655       -1.13308
H          1.88860       -3.42273       -3.49220
H          1.74624       -1.75244       -5.29387
H          1.64818        0.64332       -4.74463
H          1.69166        1.36295       -2.38171
C          3.30847       -0.84053        0.93788
C          4.34852       -1.38313        0.21932
C          5.44047       -1.91052        0.88359
C          5.48396       -1.88543        2.26350
C          4.44110       -1.33237        2.97985
C          3.35028       -0.80496        2.31248
H          2.52819       -0.36672        2.85653
H          4.47457       -1.31291        4.05673
H          6.33322       -2.29902        2.78251
H          6.25482       -2.34116        0.32445
H          4.30422       -1.38959       -0.85748
C          2.19736        1.66162        0.19471
C          3.37943        2.19856        0.65110
C          3.54868        3.57406        0.72833
C          2.48839        4.39914        0.35630
C          1.30156        3.87330       -0.10423
C          1.15735        2.47995       -0.20440
O         -0.01961        1.88556       -0.67264
C         -1.20677        2.45555       -0.19961
C         -1.37835        3.84550       -0.09553
C         -2.57280        4.34642        0.37306
C         -3.61002        3.49928        0.76033
C         -3.42093        2.12784        0.66033
C         -2.23073        1.61585        0.19648
P         -1.89618       -0.14917        0.07748
C         -3.30560       -0.91862        0.89160
C         -3.36581       -0.90392        2.26586
C         -4.45397       -1.46326        2.91122
C         -5.47581       -2.02725        2.17342
C         -5.41399       -2.03149        0.79399
C         -4.32475       -1.47214        0.15177
H         -4.26640       -1.46208       -0.92434
H         -6.21195       -2.47063        0.21807
H         -6.32290       -2.46573        2.67524
H         -4.50164       -1.46024        3.98774
H         -2.55997       -0.45708        2.82693
C         -1.81990       -0.63749       -1.65564
C         -1.73844        0.31012       -2.64980
C         -1.67933       -0.08416       -3.97352
C         -1.69507       -1.42747       -4.29294
C         -1.76486       -2.37629       -3.29253
C         -1.82606       -1.97658       -1.97125
H         -1.86089       -2.70164       -1.17423
H         -1.76506       -3.42526       -3.53898
H         -1.64298       -1.73590       -5.32431
H         -1.61143        0.65654       -4.75321
H         -1.70122        1.35369       -2.38506
Pd         0.00751       -1.45361        0.73029
Cl        -1.51165       -3.08065        1.14608
Cl         1.56759       -3.03085        1.18607
H         -4.20998        1.45724        0.95229
C         -4.90497        4.05303        1.23841
H         -4.76261        5.01285        1.73667
H         -5.38219        3.37808        1.95020
H         -5.59225        4.20443        0.40512
H         -2.70262        5.41221        0.44008
S         -0.05092        4.91966       -0.57261
H          2.59328        5.46718        0.43078
C          4.81637        4.15363        1.24684
H          4.17723        1.54449        0.95648
H          5.01206        5.13116        0.80424
H          4.77117        4.27664        2.32965
H          5.66607        3.50963        1.01624
