171
-217.83923437
P         -1.46173        0.22881       -0.38043
P          1.65767       -0.69341        0.35952
C         -0.47420        1.07420       -1.62887
C          1.01706       -1.67520       -1.01674
C          0.42672        0.33124       -2.38121
C          1.23092        0.98847       -3.33204
C          1.06128        2.34961       -3.52814
C          0.14421        3.06708       -2.78823
C         -0.62062        2.42368       -1.83556
C          1.00475       -3.03184       -0.79246
C          0.48617       -3.89129       -1.74148
C         -0.03244       -3.37843       -2.91073
C         -0.04542       -2.01448       -3.14935
C          0.49627       -1.13959       -2.18856
Cl         0.74595       -0.94331        3.40616
Cl        -2.26245       -1.54091        2.43282
C         -0.65428       -1.50957       -4.41060
C          2.23773        0.24082       -4.13443
H          0.02779        4.12640       -2.94917
H         -1.34043        2.97491       -1.25575
H          1.39647       -3.41623        0.13795
H          0.48016       -4.95425       -1.56376
H          1.65183        2.84695       -4.27846
H         -0.44922       -4.04062       -3.65089
C         -4.16954       -2.71781       -2.50156
C         -3.53501       -3.11936       -1.33294
C         -2.73014       -2.19496       -0.68163
C         -2.54555       -0.93978       -1.20295
C         -3.16030       -0.56753       -2.37359
C         -3.99797       -1.45070       -3.04505
H         -4.82890       -3.40888       -2.99309
H         -2.25658       -2.44061        0.25118
H         -2.96617        0.41357       -2.77036
C         -4.13375        3.31462        1.64174
C         -3.24864        2.60295        2.43954
C         -2.42805        1.66775        1.82456
C         -2.50688        1.43882        0.47058
C         -3.41202        2.13524       -0.29348
C         -4.23735        3.09738        0.27477
H         -4.76253        4.05657        2.09865
H         -1.72879        1.10794        2.41546
H         -3.46601        1.92830       -1.34721
C          5.55207       -2.67586        1.58246
C          4.70994       -2.20725        2.58482
C          3.51421       -1.61637        2.20368
C          3.17858       -1.49878        0.88010
C          4.02349       -1.96305       -0.09795
C          5.22906       -2.56733        0.23432
H          6.47976       -3.13887        1.85819
H          2.82520       -1.25833        2.94627
H          3.73445       -1.85990       -1.13098
C          2.83670        3.65040       -0.19049
C          3.56950        2.65568       -0.82488
C          3.15311        1.34017       -0.66243
C          2.05448        1.04428        0.10666
C          1.35348        2.04166        0.74453
C          1.73587        3.37019        0.61063
H          3.15134        4.66945       -0.31368
H          3.69388        0.53072       -1.12105
H          0.51123        1.78578        1.36211
Pd        -0.39457       -0.74592        1.48372
C         -3.31626       -5.55966       -1.86545
C         -3.74114       -4.54058       -0.79197
C         -5.22642       -4.73937       -0.44161
C         -2.89920       -4.79222        0.47512
H         -3.43160       -6.58049       -1.50164
H         -3.91616       -5.45845       -2.76899
H         -2.27157       -5.41541       -2.13960
H         -5.54541       -4.01181        0.30448
H         -5.85949       -4.61751       -1.31978
H         -5.40230       -5.73647       -0.03836
H         -1.83714       -4.65335        0.27369
H         -3.18870       -4.11725        1.28019
H         -3.03684       -5.81146        0.83542
C         -6.26043       -0.84524       -3.90940
C         -4.78294       -1.03108       -4.29699
C         -4.66954       -2.11363       -5.38832
C         -4.25328        0.29484       -4.87931
H         -6.85538       -0.53818       -4.76936
H         -6.68189       -1.77218       -3.52136
H         -6.36297       -0.08309       -3.13703
H         -5.19212       -1.80614       -6.29403
H         -3.62811       -2.29588       -5.64983
H         -5.10542       -3.05754       -5.06455
H         -4.39146        1.11802       -4.17912
H         -3.19317        0.22111       -5.12016
H         -4.78444        0.55453       -5.79491
C         -4.60932        2.57336        4.54428
C         -3.21318        2.84771        3.95501
C         -2.81292        4.30859        4.22645
C         -2.20221        1.92013        4.65925
H         -5.35779        3.24139        4.11992
H         -4.91838        1.54906        4.33679
H         -4.61133        2.71452        5.62494
H         -3.52741        5.00323        3.78627
H         -2.76811        4.50863        5.29683
H         -1.83339        4.52397        3.80226
H         -2.45319        0.87190        4.49781
H         -1.18959        2.09069        4.29650
H         -2.19928        2.09649        5.73463
C         -6.64674        3.74704        0.00212
C         -5.22464        3.92223       -0.56220
C         -5.23062        3.47547       -2.03783
C         -4.81704        5.40533       -0.50053
H         -6.93593        2.69626       -0.00495
H         -6.71480        4.10622        1.02818
H         -7.37302        4.30106       -0.59238
H         -5.51132        2.42618       -2.12716
H         -5.94684        4.05907       -2.61604
H         -4.25057        3.61243       -2.49465
H         -5.49017        6.02070       -1.09719
H         -4.84063        5.77881        0.52267
H         -3.80539        5.54206       -0.88262
C          3.95897       -3.16700        4.77527
C          5.04419       -2.32460        4.07881
C          5.08357       -0.91612        4.70071
C          6.41026       -2.99900        4.30843
H          2.97807       -2.70168        4.68558
H          3.89911       -4.16045        4.33139
H          4.17643       -3.28334        5.83678
H          5.33709       -0.96392        5.75955
H          5.82830       -0.29600        4.20220
H          4.11930       -0.41710        4.61171
H          6.42239       -4.00982        3.90117
H          7.21305       -2.42771        3.84267
H          6.63169       -3.07053        5.37326
C          7.42182       -3.73403       -0.32967
C          6.13748       -3.09112       -0.88717
C          6.53587       -1.92156       -1.80634
C          5.37319       -4.15182       -1.70179
H          7.18860       -4.58097        0.31536
H          8.05316       -4.10053       -1.13906
H          8.00530       -3.01274        0.24225
H          7.06007       -1.15066       -1.24197
H          7.19405       -2.26034       -2.60620
H          5.66095       -1.46443       -2.26716
H          5.99759       -4.55746       -2.49761
H          5.06193       -4.97744       -1.06212
H          4.47966       -3.73080       -2.16149
C          4.42659        3.90919       -2.82333
C          4.82447        3.02412       -1.62969
C          5.54440        1.77033       -2.16312
C          5.80460        3.78994       -0.72064
H          3.92552        4.81821       -2.49251
H          5.30292        4.20093       -3.40191
H          3.74885        3.37555       -3.48755
H          5.85320        1.12158       -1.34381
H          4.90062        1.20023       -2.83155
H          6.43854        2.04502       -2.72251
H          6.07104        3.18934        0.14893
H          6.72209        4.03478       -1.25552
H          5.37025        4.72266       -0.36315
C         -0.46896        4.54214        0.91160
C          0.98968        4.46391        1.39133
C          1.63711        5.84876        1.19694
C          1.02593        4.11948        2.89200
H         -0.51294        4.80673       -0.14421
H         -0.97513        3.58858        1.04402
H         -1.02569        5.29551        1.46837
H          2.67422        5.84749        1.53193
H          1.61017        6.15146        0.15030
H          1.10561        6.60722        1.77166
H          0.54107        4.89542        3.48368
H          0.51838        3.17762        3.09349
H          2.05444        4.02471        3.23957
H         -1.62849       -1.97013       -4.57573
H          1.80692       -0.10928       -5.07320
H         -0.02360       -1.74333       -5.26951
H         -0.80203       -0.42953       -4.38229
H          2.61081       -0.62713       -3.58831
H          3.09412        0.87150       -4.37686
