58
-89.85831857
P          1.67909       -0.28256        0.75530
C          2.02345        1.44124        1.11519
C          1.79819        2.38146        0.13488
C          2.02455        3.71934        0.40052
C          2.48640        4.10323        1.64407
C          2.72926        3.15415        2.61788
C          2.49866        1.81651        2.35084
H          2.68809        1.06337        3.09889
H          1.47072        2.06152       -0.84156
C          3.15854       -1.15120        0.23427
C          4.34240       -0.46450        0.09119
C          5.47716       -1.13176       -0.33365
C          5.41510       -2.48228       -0.61567
C          4.22310       -3.16570       -0.47599
C          3.08970       -2.49561       -0.05056
H          2.14875       -3.01316        0.05113
H          4.37196        0.59141        0.30671
C          0.83051       -1.20055        2.11137
C         -0.07136       -0.34585        2.99358
C         -0.87673        0.70231        2.24042
P         -1.60693        0.09669        0.66909
C         -2.68773       -1.31508        0.92364
C         -2.94552       -2.14618       -0.14230
C         -3.77815       -3.23813        0.01611
C         -4.35499       -3.48674        1.24559
C         -4.10639       -2.64322        2.31054
C         -3.27252       -1.55144        2.14739
H         -3.08463       -0.87883        2.96825
H         -2.51089       -1.91655       -1.10149
C         -2.50836        1.45283       -0.08879
C         -1.84587        2.62977       -0.35350
C         -2.52077        3.67791       -0.95264
C         -3.85411        3.53748       -1.28393
C         -4.51338        2.35311       -1.01918
C         -3.83571        1.30694       -0.41990
H         -4.33368        0.37314       -0.21543
H         -0.80225        2.72177       -0.09882
Pd         0.05953       -0.31066       -0.90899
Cl         1.71339       -0.52806       -2.40918
Cl        -1.55252       -0.35410       -2.47264
H         -1.68503        1.11020        2.85171
H         -0.24815        1.54950        1.96306
H         -0.75120       -1.00401        3.55468
H          0.53173        0.15346        3.76647
H          0.25123       -1.98009        1.61049
H          1.59710       -1.71204        2.69855
H          1.84692        4.45838       -0.36344
H          3.09707        3.45438        3.58528
H          6.40575       -0.59711       -0.44814
H          4.17322       -4.21796       -0.70289
H         -3.97945       -3.88863       -0.81909
H         -4.56311       -2.83337        3.26793
H         -2.00466        4.60003       -1.16387
H         -5.55231        2.24158       -1.28267
H          2.66464        5.14551        1.85287
H          6.29762       -3.00306       -0.94980
H         -5.00500       -4.33707        1.37281
H         -4.38028        4.35255       -1.75352
