171
-217.84200530
P         -1.64062        0.35025       -0.35880
P          1.62879       -0.37171       -0.41352
C         -0.97191        1.30014       -1.72221
C          0.91811       -1.36820       -1.72293
C         -0.16986        0.68290       -2.67538
C          0.40504        1.47718       -3.68581
C          0.11440        2.83076       -3.73389
C         -0.71670        3.41361       -2.80108
C         -1.25018        2.64348       -1.78684
C          1.19386       -2.71386       -1.74938
C          0.60195       -3.52588       -2.69597
C         -0.28176       -2.98069       -3.60260
C         -0.57023       -1.62595       -3.59431
C          0.06146       -0.79018       -2.65311
Cl         1.53951        0.30289        2.86911
Cl        -1.53041       -0.43803        2.83030
C         -1.53664       -1.08299       -4.58681
C          1.29694        0.88199       -4.71750
H         -0.94576        4.46516       -2.85952
H         -1.89218        3.09117       -1.04545
H          1.87891       -3.13267       -1.03046
H          0.82300       -4.58056       -2.71849
H          0.54550        3.43004       -4.51805
H         -0.75995       -3.61114       -4.33327
C         -4.04582       -3.20394       -1.77749
C         -2.96026       -3.42193       -0.93768
C         -2.23383       -2.31656       -0.51244
C         -2.58075       -1.05785       -0.93416
C         -3.64999       -0.85860       -1.77264
C         -4.41426       -1.93435       -2.20787
H         -4.62318       -4.05279       -2.09173
H         -1.39238       -2.42510        0.14994
H         -3.89575        0.14545       -2.07691
C         -4.10233        2.84605        2.52235
C         -4.71385        1.78176        1.87290
C         -3.95311        1.05014        0.96940
C         -2.64314        1.38404        0.72752
C         -2.05476        2.43920        1.38220
C         -2.77529        3.19031        2.30220
H         -4.67097        3.41111        3.23788
H         -4.36949        0.19600        0.46605
H         -1.01690        2.65235        1.19164
C          4.27555       -2.72460        2.42557
C          2.96695       -3.14593        2.22387
C          2.19148       -2.43945        1.31483
C          2.70373       -1.35160        0.65168
C          3.99485       -0.94079        0.87406
C          4.81128       -1.62561        1.76566
H          4.89506       -3.25065        3.12721
H          1.16610       -2.72194        1.14454
H          4.35215       -0.06447        0.36319
C          3.98089        3.22413       -1.82030
C          2.95798        3.40916       -0.89690
C          2.22473        2.29612       -0.50684
C          2.51584        1.05768       -1.02067
C          3.53336        0.88846       -1.92716
C          4.29173        1.97497       -2.34665
H          4.55944        4.07378       -2.12707
H          1.43111        2.38961        0.21528
H          3.75098       -0.10297       -2.28872
Pd         0.01772       -0.03134        1.24455
C         -1.33249       -4.87500        0.36474
C         -2.61852       -4.84711       -0.48247
C         -2.40612       -5.74499       -1.71564
C         -3.77784       -5.39646        0.36773
H         -1.44989       -4.28870        1.27565
H         -1.08439       -5.89463        0.65911
H         -0.48934       -4.47633       -0.19815
H         -2.12613       -6.75544       -1.41834
H         -3.31067       -5.81521       -2.31825
H         -1.61318       -5.34808       -2.34824
H         -3.55977       -6.40424        0.72076
H         -3.94971       -4.76304        1.23784
H         -4.70351       -5.43538       -0.20548
C         -6.34867       -3.00199       -3.47657
C         -5.64902       -1.68501       -3.08835
C         -5.23334       -0.95921       -4.38089
C         -6.65032       -0.81206       -2.31101
H         -6.70010       -3.53547       -2.59359
H         -7.21469       -2.80741       -4.10917
H         -5.67496       -3.65491       -4.03130
H         -6.10393       -0.73447       -4.99691
H         -4.72771       -0.01889       -4.16482
H         -4.56038       -1.57866       -4.97179
H         -6.21714        0.15625       -2.06306
H         -7.55137       -0.63356       -2.89756
H         -6.94402       -1.30027       -1.38204
C         -7.07534        2.63185        1.94495
C         -6.16666        1.41679        2.20854
C         -6.25342        1.01200        3.69132
C         -6.66880        0.24039        1.35018
H         -8.11805        2.39053        2.15081
H         -6.80035        3.47812        2.57320
H         -7.00133        2.94865        0.90475
H         -7.27020        0.72573        3.95957
H         -5.59788        0.16592        3.89678
H         -5.95390        1.83200        4.34298
H         -7.70428       -0.00085        1.58993
H         -6.62392        0.48949        0.29104
H         -6.07353       -0.65622        1.52212
C         -0.65374        4.52170        2.74523
C         -2.13957        4.33397        3.10470
C         -2.23451        4.01022        4.60734
C         -2.88644        5.64545        2.80294
H         -0.21199        5.32947        3.32852
H         -0.08446        3.61552        2.95177
H         -0.53803        4.77447        1.69245
H         -3.27109        3.92224        4.93015
H         -1.73434        3.06724        4.82774
H         -1.76419        4.79051        5.20539
H         -2.44561        6.47975        3.34833
H         -2.84241        5.87661        1.73872
H         -3.93581        5.57793        3.08761
C          3.30474       -4.89044        4.04763
C          2.35006       -4.33438        2.97377
C          2.03661       -5.45391        1.96614
C          1.05239       -3.87820        3.67017
H          2.83957       -5.71431        4.58878
H          4.22323       -5.26944        3.60005
H          3.56498       -4.12152        4.77487
H          1.35747       -5.10380        1.19078
H          2.94779       -5.79858        1.47757
H          1.57295       -6.30754        2.46020
H          1.25307       -3.05312        4.35322
H          0.30949       -3.53836        2.95036
H          0.60940       -4.69241        4.24318
C          7.22014       -2.33347        1.78268
C          6.24682       -1.17552        2.07103
C          6.34239       -0.76974        3.55295
C          6.65858        0.03116        1.20588
H          7.14271       -2.65070        0.74286
H          8.25087       -2.03124        1.96738
H          7.00942       -3.19664        2.41278
H          7.34587       -0.42332        3.79946
H          5.64189        0.03483        3.77611
H          6.10757       -1.60778        4.20817
H          7.68364        0.33189        1.42198
H          6.60262       -0.21608        0.14667
H          6.01621        0.89082        1.39619
C          2.74398        4.67360        1.25628
C          2.63587        4.77617       -0.27708
C          1.20715        5.18453       -0.67358
C          3.60801        5.86977       -0.75978
H          2.52351        5.63062        1.72874
H          2.04872        3.93684        1.65540
H          3.74947        4.37437        1.55136
H          1.12791        5.29310       -1.75478
H          0.48283        4.43440       -0.36014
H          0.92907        6.13449       -0.21753
H          3.37037        6.82825       -0.29838
H          4.63682        5.62321       -0.49789
H          3.54694        6.00116       -1.83995
C          6.51265        0.85033       -2.61390
C          5.47401        1.75319       -3.30337
C          6.15807        3.08048       -3.68494
C          4.98208        1.07665       -4.59547
H          7.36993        0.67397       -3.26331
H          6.87488        1.31484       -1.69716
H          6.08421       -0.11761       -2.35595
H          5.45562        3.75781       -4.17043
H          6.56962        3.57790       -2.80692
H          6.98081        2.90548       -4.37814
H          4.49507        0.12495       -4.38705
H          4.27106        1.71614       -5.11644
H          5.81332        0.88263       -5.27319
H         -1.05895       -0.92695       -5.55474
H          2.04898        1.60199       -5.04077
H         -1.95539       -0.13152       -4.25607
H         -2.36482       -1.77690       -4.73267
H          0.72922        0.57803       -5.59753
H          1.81921        0.00566       -4.33099
