171
-217.84755293
P         -1.62028        0.38786       -0.34537
P          1.62814       -0.44293       -0.31243
C         -0.87714        1.30205       -1.70081
C          0.90120       -1.40763       -1.64394
C         -0.08207        0.66461       -2.64618
C          0.54366        1.44161       -3.63992
C          0.32571        2.80900       -3.66804
C         -0.48364        3.41916       -2.73346
C         -1.07689        2.66031       -1.74354
C          1.10973       -2.76535       -1.63683
C          0.52226       -3.56463       -2.59774
C         -0.29327       -2.99570       -3.55254
C         -0.51931       -1.62971       -3.57619
C          0.10396       -0.81126       -2.61471
Cl         1.59235        0.38992        2.82049
Cl        -1.57729       -0.39240        2.85309
C         -1.40462       -1.05480       -4.62614
C          1.41679        0.81757       -4.67188
H         -0.65201        4.48283       -2.77414
H         -1.69975        3.12934       -0.99868
H          1.73542       -3.20313       -0.87574
H          0.69770       -4.62798       -2.59804
H          0.79977        3.39755       -4.43537
H         -0.76617       -3.61586       -4.29535
C         -3.87936       -3.36378       -1.47449
C         -2.91513       -3.43037       -0.47592
C         -2.21808       -2.26924       -0.17311
C         -2.48336       -1.09977       -0.84065
C         -3.43856       -1.04890       -1.82570
C         -4.16150       -2.18828       -2.16091
H         -4.44282       -4.24458       -1.71807
H         -1.47147       -2.27256        0.60233
H         -3.61878       -0.11051       -2.32183
C         -4.36185        3.10303        2.03541
C         -4.92589        2.15358        1.19250
C         -4.06642        1.32780        0.47962
C         -2.70619        1.46423        0.60199
C         -2.16638        2.41019        1.43819
C         -2.98798        3.23805        2.19198
H         -5.01353        3.75628        2.58554
H         -4.45220        0.56729       -0.17509
H         -1.09558        2.48818        1.50964
C          4.43921       -2.96937        2.18847
C          3.07301       -3.20672        2.27515
C          2.22979       -2.43676        1.48456
C          2.74154       -1.46070        0.66553
C          4.09308       -1.23038        0.60307
C          4.97430       -1.98810        1.36330
H          5.10623       -3.56082        2.78839
H          1.16351       -2.58046        1.51552
H          4.45361       -0.44502       -0.03678
C          3.77962        3.35156       -1.50875
C          2.81568        3.40815       -0.50945
C          2.15308        2.23304       -0.18410
C          2.44648        1.06096       -0.83515
C          3.40259        1.01946       -1.81975
C          4.09410        2.17239       -2.17443
H          4.31810        4.24334       -1.76852
H          1.41573        2.22701        0.60013
H          3.61049        0.07722       -2.29742
Pd        -0.00966       -0.03614        1.28935
C         -3.58625       -5.84956       -0.05219
C         -2.59919       -4.71919        0.29622
C         -2.69026       -4.44637        1.81065
C         -1.17629       -5.18025       -0.06187
H         -4.61196       -5.55484        0.16904
H         -3.52237       -6.11695       -1.10673
H         -3.36650       -6.74639        0.52697
H         -3.68127       -4.07911        2.07610
H         -2.50215       -5.35484        2.38252
H         -1.96272       -3.70072        2.12784
H         -1.10611       -5.41307       -1.12383
H         -0.44603       -4.40276        0.15803
H         -0.89965       -6.07302        0.49863
C         -5.04681       -3.25632       -4.26060
C         -5.29127       -2.16516       -3.20082
C         -5.38029       -0.80207       -3.91493
C         -6.63013       -2.42997       -2.48813
H         -5.82068       -3.23334       -5.02772
H         -4.08438       -3.11411       -4.75012
H         -5.05155       -4.25106       -3.81709
H         -5.60619       -0.00259       -3.20976
H         -4.44653       -0.56111       -4.42156
H         -6.17090       -0.80975       -4.66514
H         -6.63033       -3.40345       -1.99889
H         -6.81691       -1.67360       -1.72625
H         -7.45970       -2.40983       -3.19467
C         -7.04036        1.71006        2.46371
C         -6.45229        2.03545        1.07850
C         -6.86373        0.91763        0.09945
C         -7.02917        3.36814        0.56725
H         -8.12320        1.59800        2.41164
H         -6.62235        0.78040        2.84943
H         -6.82096        2.49865        3.18248
H         -6.48847       -0.05072        0.43012
H         -7.94889        0.84403        0.02941
H         -6.48159        1.11340       -0.90221
H         -6.80896        4.18471        1.25386
H         -6.60476        3.62352       -0.40358
H         -8.11183        3.30796        0.45733
C         -0.90961        4.05852        3.40545
C         -2.41398        4.28703        3.15507
C         -3.13722        4.20118        4.51342
C         -2.61219        5.68504        2.54598
H         -0.52783        4.76116        4.14590
H         -0.72385        3.05008        3.77512
H         -0.33277        4.20300        2.49404
H         -4.19438        4.44597        4.42215
H         -3.05806        3.19586        4.92675
H         -2.70073        4.89584        5.23089
H         -3.66932        5.89432        2.38433
H         -2.21145        6.45788        3.20164
H         -2.10560        5.76109        1.58387
C          3.05689       -5.65685        2.79991
C          2.53675       -4.27617        3.23702
C          0.99562       -4.31091        3.24616
C          3.01874       -3.96298        4.66587
H          2.73346       -5.88552        1.78446
H          4.14557       -5.69293        2.82033
H          2.68346       -6.44108        3.45821
H          0.58329       -3.34570        3.54010
H          0.60504       -4.56997        2.26335
H          0.62850       -5.05611        3.95161
H          4.10559       -3.98598        4.73355
H          2.68473       -2.97230        4.97382
H          2.62600       -4.68857        5.37792
C          6.97213       -1.34658        2.73283
C          6.49097       -1.75343        1.32818
C          6.86931       -0.63294        0.33864
C          7.19771       -3.04915        0.88990
H          6.46277       -0.44255        3.06610
H          6.77220       -2.13071        3.46213
H          8.04445       -1.15188        2.73722
H          6.55287       -0.88118       -0.67429
H          6.40933        0.31344        0.62270
H          7.94846       -0.48145        0.31923
H          8.27674       -2.90564        0.83570
H          7.00482       -3.86212        1.58885
H          6.84902       -3.36342       -0.09370
C          3.37905        5.86895       -0.17305
C          2.48024        4.69452        0.25820
C          2.68624        4.45274        1.76611
C          1.01429        5.07626       -0.01224
H          3.13496        6.76920        0.39086
H          4.43051        5.64299        0.00357
H          3.24660        6.09721       -1.23046
H          3.71774        4.16773        1.97174
H          2.46315        5.35192        2.34004
H          2.04282        3.65500        2.13424
H          0.86526        5.29421       -1.06900
H          0.33922        4.26602        0.25845
H          0.72713        5.95972        0.55766
C          6.55048        2.50810       -2.51683
C          5.22231        2.16413       -3.21599
C          4.92788        3.20998       -4.30795
C          5.36897        0.78392       -3.88619
H          6.76982        1.78614       -1.73058
H          7.37878        2.49831       -3.22508
H          6.51197        3.49674       -2.06072
H          4.88885        4.21691       -3.89455
H          5.70038        3.19783       -5.07667
H          3.97144        3.01031       -4.78907
H          5.62487        0.01736       -3.15506
H          4.44760        0.48892       -4.38669
H          6.16089        0.80005       -4.63488
H         -1.74170       -0.05213       -4.35987
H          1.80312       -0.14603       -4.33687
H         -2.29092       -1.67359       -4.76623
H         -0.88588       -0.99499       -5.58380
H          2.27159        1.45570       -4.89602
H          0.86878        0.65824       -5.60137
