72
-108.40346030
Cl        -1.82762        0.65015        2.67566
Cl         1.02814       -0.74848        2.73622
P          1.14806       -1.11994       -0.31500
P         -2.26892        0.09669       -0.37405
C         -3.23870       -1.52464       -0.19765
C         -3.60649       -1.73120        1.27274
C         -4.49633       -1.47438       -1.05782
C         -3.37140        1.62302       -0.08609
C         -4.34551        1.43594        1.07334
C         -1.45238        0.44825       -2.04032
C         -1.48932       -0.69128       -3.03733
C          1.13230        0.26731       -1.49132
C         -0.04516        1.01000       -1.94070
C          0.44277        2.13874       -2.73445
C          1.89032        2.07085       -2.78839
C          2.31496        0.90070       -2.04408
C         -2.35629       -2.68981       -0.62601
H         -2.72102       -1.71706        1.90833
H         -4.29237       -0.97169        1.63802
H         -5.01449       -2.43448       -1.03553
H         -4.26190       -1.25029       -2.09740
C         -2.41931        2.76829        0.22568
H         -4.85234        2.37520        1.29935
H         -3.83360        1.12131        1.98021
H         -2.06963        1.25511       -2.44598
H         -0.82902       -1.49523       -2.72080
H         -1.13035       -0.36560       -4.01581
H         -2.49279       -1.09222       -3.17506
H         -0.18482        2.84703       -3.27845
H          2.54487        2.75455       -3.33365
Pd        -0.50481       -0.30981        1.14425
H          3.34168        0.57411       -1.86615
C         -4.16969        1.94813       -1.35540
H         -5.11958        0.70918        0.83422
H         -2.95499        3.71808        0.28098
H         -1.93225        2.60992        1.18680
H         -1.65105        2.85884       -0.54363
H         -4.95862        2.66929       -1.13525
H         -3.54764        2.40008       -2.12719
H         -4.64197        1.06161       -1.77496
H         -4.09540       -2.69660        1.41339
H         -5.19711       -0.72247       -0.69903
H         -2.12327       -2.66216       -1.68722
H         -1.42454       -2.68876       -0.06317
H         -2.85356       -3.64227       -0.43473
C          2.82207       -1.20517        0.37241
C          3.28385       -2.20605        1.19060
C          4.60635       -1.89777        1.50937
C          4.89940       -0.71949        0.86849
O          3.81305       -0.28378        0.16637
H          2.72014       -3.05640        1.53691
H          5.26711       -2.47054        2.13940
H          5.84756       -0.19748        0.90583
C          0.79183       -2.70936       -1.08567
C          0.71791       -3.88757       -0.38420
C          0.42886       -4.89450       -1.30624
C          0.33923       -4.28706       -2.53465
O          0.55644       -2.94412       -2.41287
H          0.84049       -4.00204        0.68083
H          0.30065       -5.94356       -1.09506
H          0.12583       -4.78511       -3.47231
Fe         1.27058        2.16801       -0.83865
C          2.13200        1.99336        1.01891
C          0.82291        2.60276        1.11244
C          0.82533        3.82017        0.32262
C          2.14161        3.96033       -0.27213
C          2.94073        2.82229        0.14712
H          2.44183        1.06672        1.50528
H          0.01139        2.23456        1.74250
H          0.00168        4.53140        0.23052
H          2.47530        4.78056       -0.91139
H          3.98444        2.63629       -0.11662
