111
-148.55860507
P         -1.88476        2.70183        0.26312
P         -0.35071       -0.04617        0.51358
C         -1.59123        1.98599        1.90050
C         -0.97542        0.75753        2.00225
C         -1.10408        4.37066        0.10692
C         -0.02753        4.34732       -0.95659
C         -1.97124        2.66401        3.04072
H         -2.43438        3.63336        2.95326
C         -1.74520        2.09905        4.28405
H         -2.04396        2.62573        5.17565
C         -1.13475        0.86322        4.38354
H         -0.95542        0.42531        5.35165
C         -0.74152        0.19337        3.23865
H         -0.24271       -0.76089        3.29941
Pd        -1.30237        1.08267       -1.26890
Cl        -2.11553        2.38364       -2.90305
Cl        -0.63779       -0.59643       -2.60313
C         -2.29146        5.29876       -0.22213
C         -3.65896        3.15137       -0.01048
H          0.74015        3.60431       -0.73018
H         -0.45230        4.08569       -1.92769
H          0.45598        5.32179       -1.05877
H         -2.29722        5.49068       -1.30377
H         -2.15014        6.28312        0.24890
H         -3.86933        2.91233       -1.06158
C         -3.65478        4.67665        0.19351
C         -4.59011        2.38504        0.90477
H         -0.68364        4.60672        1.09325
H         -3.85379        4.89446        1.25182
H         -4.48442        5.13882       -0.36314
H         -4.37553        2.60175        1.95206
H         -5.63442        2.64861        0.72227
H         -4.48282        1.30666        0.76557
C         -1.01433       -4.55178        0.41603
C          0.09207       -4.02527        1.13089
C          0.28166       -2.65260        1.13255
C         -0.61609       -1.81612        0.52117
C         -1.74534       -2.31348       -0.07429
C         -1.99255       -3.67544       -0.11820
O         -1.12216       -5.95385        0.21415
C          1.08362       -4.92835        1.88217
H          1.14365       -2.21514        1.60578
H         -2.42885       -1.61649       -0.52832
C         -3.28831       -4.17222       -0.77828
C          3.96554        1.24025       -0.16321
C          3.53538       -0.02751       -0.63364
C          2.21047       -0.38294       -0.44006
C          1.36121        0.41944        0.27441
C          1.79831        1.59760        0.82289
C          3.10613        2.02056        0.65217
O          5.23938        1.75902       -0.51977
C          4.46736       -1.02800       -1.33598
H          1.81856       -1.29496       -0.85582
H          1.09738        2.18389        1.39089
C          3.60806        3.28759        1.36306
C          2.17734       -5.40979        0.91757
C          1.75842       -4.15953        3.04042
C          0.35823       -6.13601        2.50334
C         -3.04702       -4.35799       -2.28433
C         -3.76883       -5.49100       -0.14612
C         -4.42675       -3.14380       -0.58645
C         -0.51521       -6.41742       -0.98558
H          1.75779       -5.99459        0.10347
H          2.70427       -4.56334        0.48029
H          2.90786       -6.03144        1.43468
H          1.01228       -3.70139        3.68919
H          2.36351       -4.83093        3.64930
H          2.42135       -3.37811        2.67143
H          1.04514       -6.74803        3.08732
H         -0.44457       -5.80482        3.16122
H         -0.07905       -6.77175        1.73705
H         -2.74465       -3.41707       -2.74364
H         -2.25879       -5.08297       -2.47181
H         -3.95055       -4.70393       -2.78557
H         -3.05435       -6.29391       -0.30691
H         -3.90233       -5.37431        0.92883
H         -4.72007       -5.80674       -0.57385
H         -4.54204       -2.88503        0.46578
H         -4.24348       -2.22861       -1.14736
H         -5.37592       -3.54790       -0.93770
H          0.00725       -5.60194       -1.48745
H          0.19023       -7.21445       -0.75085
H         -1.27601       -6.82498       -1.65068
C          5.26787        2.39588       -1.79132
C          5.93304       -0.83468       -0.90562
C          4.08374       -2.47520       -0.95091
C          4.32774       -0.87041       -2.85781
C          3.68274        4.45953        0.37375
C          2.66450        3.69043        2.51770
C          4.99890        3.02690        1.96898
H          6.31294        0.13997       -1.19807
H          6.02745       -0.91563        0.17679
H          6.57678       -1.58813       -1.35886
H          3.11064       -2.75690       -1.34990
H          4.80919       -3.18667       -1.34476
H          4.05708       -2.58863        0.13251
H          4.98153       -1.56519       -3.38429
H          3.30304       -1.06772       -3.17195
H          4.57913        0.13818       -3.17689
H          4.39437        4.25768       -0.42139
H          2.71239        4.64656       -0.08255
H          3.99893        5.37319        0.87660
H          3.08136        4.52207        3.08524
H          1.69261        4.01073        2.14424
H          2.51350        2.85964        3.20657
H          4.96388        2.19001        2.66573
H          5.36291        3.90190        2.50677
H          5.72440        2.78646        1.19432
H          5.83919        3.32137       -1.71784
H          5.75867        1.75566       -2.52270
H          4.25396        2.61753       -2.12700
