58
-89.85851238
P          1.71882       -0.28663        0.67722
C          2.10756        1.41543        1.08936
C          2.65901        1.72570        2.31127
C          2.92966        3.04571        2.62463
C          2.64941        4.04237        1.71021
C          2.10831        3.72379        0.48018
C          1.84128        2.40349        0.16806
H          1.44883        2.13492       -0.79974
H          2.87653        0.93572        3.01236
C          3.16087       -1.16919        0.08146
C          4.35482       -0.50454       -0.08037
C          5.45937       -1.18340       -0.56266
C          5.35705       -2.52296       -0.88279
C          4.15486       -3.18396       -0.72400
C          3.05176       -2.50239       -0.24109
H          2.10284       -3.00184       -0.12386
H          4.41563        0.54332        0.16573
C          0.89428       -1.22759        2.03222
C          0.02934       -0.38235        2.95872
C         -0.80488        0.67613        2.25215
P         -1.61196        0.09238        0.70970
C         -2.64087       -1.35404        0.97622
C         -2.90544       -2.17785       -0.09367
C         -3.69688       -3.29860        0.07482
C         -4.22562       -3.58281        1.31821
C         -3.97064       -2.74632        2.38731
C         -3.17807       -1.62566        2.21424
H         -2.98507       -0.95820        3.03823
H         -2.50845       -1.92073       -1.06224
C         -2.57387        1.44355        0.02315
C         -1.94768        2.63824       -0.25069
C         -2.67175        3.68286       -0.79657
C         -4.01663        3.52089       -1.06595
C         -4.63890        2.31855       -0.79274
C         -3.91246        1.27592       -0.24677
H         -4.38113        0.32829       -0.03645
H         -0.89468        2.74692       -0.04452
Pd         0.02589       -0.24240       -0.90999
Cl         1.62694       -0.43497       -2.47124
Cl        -1.63990       -0.27307       -2.41844
H         -1.58247        1.08097        2.90400
H         -0.18490        1.52298        1.95443
H         -0.62846       -1.04632        3.53880
H          0.66422        0.10710        3.71216
H          0.29092       -1.98774        1.53018
H          1.66999       -1.76211        2.58592
H          3.35808        3.29498        3.58150
H          1.90033        4.50019       -0.23766
H          6.39584       -0.66616       -0.69195
H          4.07325       -4.22738       -0.98062
H         -3.90347       -3.94398       -0.76306
H         -4.39004       -2.96462        3.35570
H         -2.18511        4.61929       -1.01462
H         -5.68696        2.19035       -1.00813
H          2.85965        5.07082        1.95476
H          6.21594       -3.05258       -1.26162
H         -4.84316       -4.45581        1.45333
H         -4.58104        4.33334       -1.49386
