171
-217.84569329
P         -1.61109        0.44198       -0.34865
P          1.59228       -0.38140       -0.33018
C         -0.87099        1.38945       -1.68375
C          0.86013       -1.33568       -1.66232
C         -0.07036        0.77159       -2.63833
C          0.57974        1.57247       -3.59691
C          0.37918        2.94281       -3.58354
C         -0.43801        3.53333       -2.64300
C         -1.05540        2.75068       -1.68751
C          1.03531       -2.69768       -1.66485
C          0.45096       -3.47007       -2.64950
C         -0.31854       -2.86819       -3.62272
C         -0.51000       -1.49640       -3.63562
C          0.10089       -0.70716       -2.64238
Cl         1.61871        0.64625        2.78776
Cl        -1.49953       -0.27374        2.94181
C         -1.33569       -0.87901       -4.70975
C          1.48227        0.97889       -4.62148
H         -0.58929        4.60037       -2.64760
H         -1.68343        3.20469       -0.93822
H          1.63239       -3.15835       -0.89436
H          0.59611       -4.53791       -2.65712
H          0.87732        3.54974       -4.32075
H         -0.78200       -3.46716       -4.38843
C         -3.76668       -3.36942       -1.47479
C         -4.04609       -2.21210       -2.19196
C         -3.34773       -1.05633       -1.86108
C         -2.41909       -1.07447       -0.84973
C         -2.16455       -2.22323       -0.14303
C         -2.83456       -3.40078       -0.44469
H         -4.30876       -4.26352       -1.71869
H         -3.53297       -0.12820       -2.37442
H         -1.45777       -2.19313        0.66853
C         -4.49648        2.89191        2.14929
C         -4.99151        1.85342        1.37003
C         -4.08725        1.12879        0.60459
C         -2.75200        1.44647        0.61260
C         -2.28141        2.48061        1.38272
C         -3.14548        3.21810        2.18067
H         -5.18669        3.45078        2.75270
H         -4.41618        0.29931        0.00444
H         -1.22759        2.70227        1.37570
C          4.23781       -2.96560        2.29698
C          2.86178       -3.15429        2.34315
C          2.07476       -2.37559        1.50471
C          2.64303       -1.42291        0.69575
C          4.00186       -1.23021        0.68670
C          4.83115       -2.00782        1.48413
H          4.87050       -3.57715        2.91222
H          1.00591       -2.49742        1.48900
H          4.41022       -0.45992        0.05779
C          3.95294        3.22294       -1.69695
C          2.93780        3.39866       -0.76534
C          2.22440        2.27629       -0.36563
C          2.50520        1.04624       -0.90529
C          3.49784        0.89131       -1.84159
C          4.25102        1.98507       -2.25320
H          4.54368        4.07367       -1.98232
H          1.45084        2.34952        0.37866
H          3.68394       -0.09245       -2.23784
Pd        -0.00010        0.11991        1.30969
C         -4.81107       -3.29794       -4.32527
C         -5.14301       -2.23010       -3.26614
C         -5.27484       -0.86477       -3.96882
C         -6.49110       -2.56470       -2.60087
H         -5.56063       -3.30784       -5.11639
H         -3.84186       -3.10314       -4.78218
H         -4.77816       -4.29487       -3.88768
H         -6.04818       -0.89806       -4.73613
H         -5.54903       -0.08356       -3.26008
H         -4.34209       -0.57886       -4.45308
H         -7.29757       -2.57026       -3.33392
H         -6.46511       -3.54455       -2.12544
H         -6.73577       -1.82876       -1.83537
C         -3.43260       -5.84523       -0.05133
C         -2.54922       -4.66061        0.38418
C         -2.83145       -4.36288        1.86934
C         -1.07461       -5.06038        0.20428
H         -4.49017       -5.61035        0.06784
H         -3.25113       -6.10790       -1.09338
H         -3.22024       -6.72753        0.55239
H         -2.63675       -5.23907        2.48746
H         -2.20830       -3.54964        2.23830
H         -3.87223       -4.07293        2.01171
H         -0.86816       -5.30434       -0.83709
H         -0.40871       -4.24951        0.49421
H         -0.82939       -5.93254        0.80996
C         -6.82691        0.36065        0.43147
C         -6.48985        1.51952        1.39146
C         -7.29592        2.75818        0.95912
C         -6.89458        1.10576        2.81785
H         -7.89469        0.14276        0.44731
H         -6.55625        0.61067       -0.59425
H         -6.30131       -0.55091        0.71564
H         -8.36400        2.54190        0.94231
H         -7.13665        3.59333        1.64010
H         -7.00079        3.07942       -0.03965
H         -7.95116        0.84242        2.86325
H         -6.31616        0.24217        3.14563
H         -6.72064        1.91325        3.52811
C         -3.64479        4.90290        4.02212
C         -2.58386        4.35145        3.05027
C         -2.10857        5.49352        2.13605
C         -1.39792        3.82144        3.88156
H         -4.03179        4.11332        4.66605
H         -3.21815        5.67464        4.66273
H         -4.47928        5.35057        3.48295
H         -2.93829        5.88969        1.55092
H         -1.68325        6.31071        2.71834
H         -1.34819        5.14479        1.43930
H         -1.70456        2.97006        4.48873
H         -0.57503        3.49733        3.24626
H         -1.01388        4.59243        4.54912
C          2.16819       -5.54991        2.47631
C          2.22869       -4.22172        3.24769
C          0.80298       -3.80526        3.66653
C          3.05807       -4.41312        4.53369
H          3.16871       -5.88364        2.20178
H          1.70250       -6.33128        3.07661
H          1.59219       -5.43817        1.55837
H          0.80564       -2.81259        4.11655
H          0.12479       -3.79076        2.81583
H          0.39129       -4.50398        4.39454
H          2.55504       -5.09273        5.22149
H          4.03800       -4.83778        4.32024
H          3.20065       -3.46184        5.04607
C          6.79955       -1.41654        2.91731
C          6.35503       -1.82219        1.50031
C          6.80350       -0.72495        0.51448
C          7.03513       -3.14388        1.09865
H          6.30840       -0.49321        3.22395
H          6.54859       -2.18625        3.64622
H          7.87681       -1.25640        2.95796
H          7.88702       -0.60842        0.53117
H          6.51414       -0.97428       -0.50623
H          6.36490        0.23858        0.77356
H          6.79432       -3.94311        1.79853
H          6.70970       -3.45774        0.10697
H          8.11932       -3.03423        1.07919
C          2.45731        5.80348       -1.31411
C          2.66424        4.78796       -0.17439
C          3.86537        5.21154        0.68856
C          1.39882        4.78577        0.70517
H          3.35189        5.90372       -1.92717
H          1.64005        5.49157       -1.96330
H          2.21564        6.78962       -0.91794
H          3.70016        6.19247        1.13381
H          4.02983        4.49700        1.49493
H          4.77764        5.26120        0.09487
H          0.53256        4.45280        0.13439
H          1.51835        4.13021        1.56739
H          1.18660        5.78638        1.08141
C          5.49714        0.43544       -3.84086
C          5.42776        1.84900       -3.23034
C          6.73857        2.12071       -2.47036
C          5.27907        2.86700       -4.37761
H          6.31546        0.36337       -4.55714
H          5.66846       -0.31767       -3.07210
H          4.57467        0.18893       -4.36581
H          7.60059        2.02296       -3.13002
H          6.74868        3.12650       -2.05150
H          6.86061        1.41613       -1.64834
H          6.09155        2.76269       -5.09655
H          4.34038        2.72008       -4.90977
H          5.29665        3.89118       -4.00767
H         -1.75207        0.07734       -4.39028
H          1.73869       -0.05361       -4.38079
H         -2.16819       -1.52695       -4.98418
H         -0.74058       -0.70585       -5.60725
H          2.41376        1.54111       -4.68566
H          1.01556        0.99172       -5.60739
