171
-217.84515622
P         -1.64211        0.41295       -0.27017
P          1.65885       -0.35483       -0.40217
C         -0.94210        1.43585       -1.56724
C          0.88665       -1.25442       -1.74601
C         -0.14639        0.87872       -2.56210
C          0.45792        1.73743       -3.49962
C          0.21530        3.09950       -3.42982
C         -0.59569        3.62830       -2.44850
C         -1.16634        2.79009       -1.51157
C          1.11290       -2.60514       -1.84327
C          0.50605       -3.33824       -2.84414
C         -0.34053       -2.70969       -3.73280
C         -0.58074       -1.34810       -3.65096
C          0.05753       -0.59505       -2.64667
Cl         1.74575        0.58096        2.69285
Cl        -1.43563       -0.39025        2.89208
C         -1.49786       -0.70872       -4.63408
C          1.33429        1.20466       -4.57733
H         -0.78004        4.68944       -2.40834
H         -1.79154        3.19471       -0.73215
H          1.76858       -3.08674       -1.13544
H          0.69322       -4.39615       -2.92914
H          0.67166        3.74907       -4.15764
H         -0.82666       -3.27902       -4.50709
C         -3.87033       -3.26902       -1.65397
C         -2.88187       -3.40627       -0.68682
C         -2.18668       -2.26671       -0.30424
C         -2.47829       -1.05097       -0.86995
C         -3.45950       -0.92976       -1.82327
C         -4.18096       -2.04506       -2.23400
H         -4.43188       -4.13287       -1.95572
H         -1.42483       -2.32062        0.45479
H         -3.66585        0.04604       -2.22923
C         -4.45296        2.75359        2.41115
C         -4.97496        1.75739        1.59625
C         -4.09398        1.06451        0.77637
C         -2.75578        1.37097        0.76993
C         -2.25833        2.36420        1.57722
C         -3.10165        3.07544        2.42139
H         -5.11630        3.28359        3.06971
H         -4.44397        0.26672        0.14633
H         -1.20060        2.56302        1.56136
C          4.21987       -2.96062        2.28959
C          2.85505       -3.20625        2.22184
C          2.09914       -2.42983        1.35243
C          2.68895       -1.43337        0.61221
C          4.03772       -1.19280        0.70832
C          4.83534       -1.96195        1.54666
H          4.81918       -3.55314        2.95610
H          1.03624       -2.57705        1.26928
H          4.45949       -0.38299        0.14050
C          4.02682        3.22987       -1.81081
C          3.00343        3.41751       -0.88985
C          2.29202        2.29997       -0.47200
C          2.58803        1.06025       -0.97999
C          3.59447        0.89191       -1.89941
C          4.34663        1.97931       -2.32745
H          4.59499        4.08672       -2.11999
H          1.50297        2.38444        0.25518
H          3.80014       -0.09676       -2.27503
Pd         0.07239        0.05393        1.27884
C         -2.67135       -4.60345        1.50646
C         -2.55093       -4.74973       -0.02269
C         -1.11582       -5.15452       -0.40045
C         -3.50986       -5.86662       -0.47787
H         -1.98798       -3.84802        1.89065
H         -3.68236       -4.30715        1.78505
H         -2.44464       -5.54401        2.00812
H         -0.82185       -6.07603        0.10170
H         -1.03588       -5.31612       -1.47485
H         -0.40347       -4.37726       -0.12849
H         -3.27177       -6.80638        0.02031
H         -4.54337       -5.61732       -0.23790
H         -3.43469       -6.03636       -1.55176
C         -5.10226       -2.93442       -4.40065
C         -5.33843       -1.95051       -3.23893
C         -5.47231       -0.52931       -3.82016
C         -6.65312       -2.30932       -2.52197
H         -5.89974       -2.86125       -5.13994
H         -4.15903       -2.72504       -4.90295
H         -5.07120       -3.96499       -4.04959
H         -5.69197        0.19628       -3.03726
H         -4.55795       -0.22324       -4.32713
H         -6.28386       -0.48357       -4.54625
H         -7.50122       -2.23927       -3.20286
H         -6.62325       -3.32464       -2.12801
H         -6.83380       -1.63295       -1.68716
C         -7.28522        2.69777        1.31666
C         -6.47402        1.43028        1.64336
C         -6.83627        0.92825        3.05263
C         -6.84832        0.33762        0.62205
H         -7.01849        3.08169        0.33213
H         -8.35461        2.48741        1.31856
H         -7.10068        3.48652        2.04493
H         -7.89291        0.66872        3.11537
H         -6.25445        0.04213        3.30577
H         -6.63303        1.68772        3.80677
H         -7.91746        0.12820        0.65306
H         -6.60211        0.65060       -0.39246
H         -6.32469       -0.59452        0.83375
C         -1.06582        4.38905        3.19558
C         -2.57632        4.14967        3.38355
C         -2.82072        3.68825        4.83155
C         -3.31378        5.47645        3.12506
H         -0.84962        4.71532        2.17905
H         -0.70801        5.16281        3.87459
H         -0.49492        3.48326        3.39934
H         -2.31902        2.73932        5.02063
H         -2.44125        4.41999        5.54445
H         -3.88323        3.54917        5.02776
H         -2.93972        6.26392        3.77915
H         -3.17339        5.79947        2.09364
H         -4.38394        5.37802        3.30261
C          0.69246       -4.30143        2.99284
C          2.22692       -4.27939        3.12230
C          2.57754       -3.98116        4.59256
C          2.77581       -5.66015        2.72283
H          0.26364       -3.33249        3.24854
H          0.39330       -4.55806        1.97853
H          0.25667       -5.04388        3.66118
H          2.11091       -4.70595        5.25940
H          3.65267       -4.01898        4.76238
H          2.22814       -2.98825        4.87524
H          3.85819       -5.70281        2.83966
H          2.34083       -6.44656        3.33942
H          2.54278       -5.87969        1.68096
C          7.12064       -2.99816        1.42534
C          6.33901       -1.70330        1.71650
C          6.60907       -1.24480        3.16092
C          6.83862       -0.61023        0.75327
H          8.19452       -2.83200        1.50921
H          6.85282       -3.79086        2.12268
H          6.91224       -3.35439        0.41664
H          6.31226       -2.00824        3.87921
H          7.66763       -1.03503        3.31317
H          6.04809       -0.33811        3.38680
H          7.90978       -0.44790        0.87243
H          6.66066       -0.89871       -0.28179
H          6.33918        0.34007        0.94107
C          3.93285        5.30297        0.46970
C          2.71493        4.82010       -0.33780
C          1.48186        4.82053        0.58624
C          2.44716        5.78899       -1.50467
H          4.14322        4.61999        1.29258
H          4.82362        5.35779       -0.15521
H          3.75591        6.29333        0.88882
H          1.64328        4.18373        1.45578
H          1.27070        5.82613        0.94961
H          0.59768        4.46645        0.05717
H          2.20075        6.78449       -1.13582
H          3.31708        5.88196       -2.15343
H          1.61354        5.43878       -2.11194
C          4.99054        1.16542       -4.62071
C          5.51469        1.76293       -3.30290
C          6.52731        0.79261       -2.66859
C          6.24244        3.08282       -3.62415
H          4.30700        1.85650       -5.11167
H          5.81092        0.96419       -5.30947
H          4.46246        0.22819       -4.44937
H          7.38579        0.64060       -3.32260
H          6.89181        1.18492       -1.71950
H          6.07526       -0.18076       -2.48242
H          5.56721        3.79972       -4.09102
H          6.65640        3.53249       -2.72179
H          7.06805        2.91055       -4.31460
H         -1.80875        0.28382       -4.30544
H          2.10767        1.92735       -4.83831
H         -2.39845       -1.30763       -4.76779
H         -1.01723       -0.60835       -5.60813
H          0.75975        0.99209       -5.47959
H          1.82968        0.28415       -4.26541
