111
-148.55916243
P         -2.68175        1.83621        0.60267
P          0.18138        0.49453        0.46560
C         -1.76849        1.50717        2.13406
C         -0.49541        0.98259        2.06676
C         -3.66552        3.39954        0.71434
C         -2.98685        4.54252       -0.00843
C         -2.33759        1.77891        3.36194
H         -3.34034        2.17055        3.41024
C         -1.62389        1.53191        4.52197
H         -2.06748        1.74390        5.48111
C         -0.34547        1.01277        4.45212
H          0.20953        0.81836        5.35511
C          0.21808        0.73245        3.22065
H          1.20804        0.31121        3.15158
Pd        -1.13330        1.60470       -1.09034
Cl        -2.64461        2.46256       -2.50973
Cl         0.44092        1.30103       -2.66158
C         -5.02721        2.98082        0.13029
C         -4.03027        0.62063        0.23742
H         -3.57215        5.46234        0.06108
H         -1.99443        4.73914        0.40407
H         -2.86110        4.31322       -1.06718
H         -5.02483        3.18487       -0.94943
H         -5.83265        3.60414        0.54790
H         -3.88352        0.31116       -0.80619
C         -5.30929        1.46972        0.37058
C         -3.97108       -0.57374        1.16504
H         -3.76646        3.62873        1.78268
H         -5.72122        1.33149        1.37969
H         -6.08583        1.10176       -0.31706
H         -4.78601       -1.27404        0.96775
H         -3.02940       -1.11414        1.05454
H         -4.04744       -0.25917        2.20744
C         -1.41252       -3.67624       -0.42250
C         -1.00425       -2.83435       -1.49079
C         -0.51311       -1.57928       -1.17996
C         -0.36680       -1.17524        0.12026
C         -0.63340       -2.03234        1.15496
C         -1.11345       -3.30932        0.91725
O         -2.19317       -4.83086       -0.68633
C         -1.08740       -3.22124       -2.97608
H         -0.25482       -0.88326       -1.95957
H         -0.48167       -1.68581        2.16293
C         -1.28364       -4.24583        2.12443
C          4.72854        0.55725        0.24183
C          4.06327       -0.45818        0.97932
C          2.67843       -0.44826        1.00241
C          1.96656        0.56315        0.41162
C          2.60739        1.61345       -0.19063
C          3.99010        1.66037       -0.26366
O          6.10908        0.42720       -0.05745
C          4.78396       -1.56376        1.76966
H          2.13567       -1.25028        1.47442
H          2.00953        2.39155       -0.63395
C          4.63294        2.90412       -0.90030
C          0.24319       -2.86346       -3.67480
C         -1.31148       -4.72973       -3.17689
C         -2.23095       -2.43650       -3.64126
C         -2.48528       -3.78355        2.96554
C         -1.48264       -5.71225        1.70408
C         -0.00703       -4.19337        2.99321
C         -3.58555       -4.56223       -0.67925
H          1.08274       -3.34056       -3.17007
H          0.23955       -3.19817       -4.71176
H          0.42096       -1.78943       -3.68238
H         -0.54854       -5.30454       -2.65309
H         -2.28190       -5.03816       -2.79527
H         -1.27313       -4.99550       -4.23304
H         -2.29997       -2.67316       -4.70259
H         -3.18898       -2.67196       -3.18172
H         -2.07304       -1.36245       -3.54699
H         -2.61525       -4.41948        3.84078
H         -2.34791       -2.75985        3.31271
H         -3.40669       -3.81697        2.38727
H         -2.41857       -5.84493        1.16660
H         -0.67372       -6.03778        1.05098
H         -1.50505       -6.37035        2.57239
H         -0.06863       -4.90323        3.81767
H          0.87225       -4.44266        2.39969
H          0.14832       -3.20639        3.42586
H         -3.89149       -4.19724        0.29979
H         -3.82405       -3.80539       -1.42488
H         -4.12981       -5.47862       -0.90834
C          6.34599       -0.29502       -1.25462
C          4.62409       -2.90564        1.03580
C          6.27874       -1.26053        1.97124
C          4.15406       -1.68073        3.17583
C          4.42107        2.86188       -2.42298
C          3.96555        4.17672       -0.33337
C          6.13639        3.01131       -0.59143
H          5.07053       -2.86794        0.04407
H          5.10455       -3.71176        1.58967
H          3.57166       -3.16163        0.91655
H          6.41362       -0.28150        2.42972
H          6.74745       -2.00506        2.61432
H          6.81300       -1.26134        1.02423
H          4.69582       -2.40364        3.78524
H          4.18108       -0.72041        3.69006
H          3.11704       -2.00920        3.12969
H          4.84123        3.74695       -2.89984
H          4.89583        1.98680       -2.86224
H          3.36002        2.82009       -2.66722
H          4.02741        4.19118        0.75440
H          4.45721        5.07337       -0.70990
H          2.91548        4.24262       -0.61289
H          6.54953        3.94606       -0.96974
H          6.69258        2.19736       -1.05014
H          6.31169        2.97175        0.48307
H          5.88108        0.21457       -2.09686
H          7.42044       -0.36638       -1.42494
H          5.92632       -1.29652       -1.17700
