171
-217.84788602
P         -1.60274        0.41841       -0.31959
P          1.61648       -0.40846       -0.32178
C         -0.88596        1.34965       -1.67826
C          0.88485       -1.35929       -1.66069
C         -0.09929        0.72375       -2.63838
C          0.51416        1.51236       -3.63072
C          0.28801        2.87857       -3.64608
C         -0.51748        3.47638       -2.70025
C         -1.09529        2.70672       -1.70967
C          1.09405       -2.71692       -1.66922
C          0.50616       -3.50572       -2.63847
C         -0.31070       -2.92655       -3.58586
C         -0.53752       -1.56046       -3.59380
C          0.08770       -0.75226       -2.62463
Cl         1.64366        0.34858        2.81737
Cl        -1.56650       -0.32325        2.86777
C         -1.42661       -0.97467       -4.63454
C          1.38602        0.90347       -4.67273
H         -0.69361        4.53913       -2.73156
H         -1.71445        3.16661       -0.95628
H          1.72098       -3.16306       -0.91406
H          0.68227       -4.56887       -2.65105
H          0.75238        3.47592       -4.41256
H         -0.78445       -3.53872       -4.33472
C         -3.85529       -3.33365       -1.45337
C         -2.87686       -3.40800       -0.46905
C         -2.17600       -2.24919       -0.16568
C         -2.45112       -1.07515       -0.82085
C         -3.41919       -1.01660       -1.79266
C         -4.14666       -2.15299       -2.12699
H         -4.42419       -4.21182       -1.69369
H         -1.42058       -2.25696        0.60123
H         -3.60960       -0.07277       -2.27474
C         -4.41357        3.01421        2.11849
C         -4.94660        2.01777        1.30911
C         -4.06320        1.24221        0.57199
C         -2.71086        1.46531        0.63617
C         -2.20060        2.45530        1.43914
C         -3.04568        3.24282        2.21081
H         -5.07472        3.62888        2.69976
H         -4.43474        0.44748       -0.05070
H         -1.13418        2.59617        1.47301
C          4.41955       -3.01059        2.11275
C          3.05018       -3.21540        2.22681
C          2.20976       -2.42263        1.45591
C          2.72729       -1.45183        0.63415
C          4.08238       -1.25176        0.54755
C          4.96069       -2.03583        1.28398
H          5.08478       -3.62395        2.69225
H          1.14141       -2.54372        1.50510
H          4.44887       -0.47037       -0.09353
C          3.82389        3.34888       -1.53455
C          2.86169        3.42517       -0.53483
C          2.17859        2.26281       -0.20584
C          2.45598        1.08258       -0.84923
C          3.40990        1.02205       -1.83503
C          4.11836        2.16249       -2.19637
H          4.37572        4.23102       -1.79903
H          1.43315        2.27430        0.57057
H          3.60154        0.07494       -2.30991
Pd         0.00960        0.02916        1.31022
C         -2.65586       -4.43819        1.80965
C         -2.55601       -4.70078        0.29411
C         -1.12910       -5.15150       -0.06196
C         -3.53443       -5.83486       -0.06636
H         -2.45648       -5.34701        2.37710
H         -1.94105       -3.68301        2.13309
H         -3.65302       -4.08685        2.07373
H         -0.84826       -6.04463        0.49588
H         -1.05490       -5.38014       -1.12452
H         -0.40380       -4.37065        0.16193
H         -3.30768       -6.73609        0.50319
H         -4.56240       -5.55074        0.15821
H         -3.46861       -6.09006       -1.12381
C         -6.62289       -2.36347       -2.40268
C         -5.29623       -2.11718       -3.14419
C         -5.08581       -3.21190       -4.20752
C         -5.38269       -0.75418       -3.85903
H         -6.62432       -3.33570       -1.91091
H         -6.78374       -1.60285       -1.63872
H         -7.46698       -2.33467       -3.09148
H         -4.12984       -3.08248       -4.71336
H         -5.09685       -4.20655       -3.76399
H         -5.87242       -3.17812       -4.96115
H         -4.45452       -0.52349       -4.38043
H         -6.18499       -0.75499       -4.59676
H         -5.58969        0.04880       -3.15214
C         -6.90885        1.89279       -0.24726
C         -6.45151        1.72992        1.21443
C         -7.27279        2.69074        2.09498
C         -6.71906        0.28650        1.68116
H         -7.97902        1.71077       -0.34412
H         -6.70360        2.90162       -0.60480
H         -6.39216        1.19389       -0.90385
H         -8.33803        2.47490        2.01320
H         -6.99666        2.59342        3.14475
H         -7.12187        3.72656        1.79149
H         -7.78334        0.05486        1.64402
H         -6.19888       -0.43599        1.05312
H         -6.37706        0.14442        2.70608
C         -0.96879        4.31789        3.21492
C         -2.50906        4.32866        3.15444
C         -3.04464        4.08082        4.57741
C         -2.97319        5.70724        2.65333
H         -0.60267        5.06675        3.91701
H         -0.59622        3.34696        3.54138
H         -0.53797        4.54490        2.24129
H         -4.13125        4.14568        4.61226
H         -2.75629        3.08984        4.92757
H         -2.64642        4.81533        5.27719
H         -2.60065        6.50294        3.29822
H         -2.60800        5.89194        1.64310
H         -4.06052        5.77320        2.63317
C          0.96912       -4.24689        3.26643
C          2.50836       -4.27981        3.19122
C          3.06203       -4.01844        4.60474
C          2.94880       -5.67172        2.70569
H          0.59960       -4.98171        3.98145
H          0.61310       -3.26687        3.58406
H          0.52587       -4.47998        2.29986
H          2.66254       -4.73804        5.31913
H          4.14813       -4.09594        4.62870
H          2.78947       -3.01911        4.94367
H          4.03489       -5.75279        2.67584
H          2.57204       -6.45292        3.36569
H          2.57108       -5.86595        1.70186
C          6.86652       -0.71903        0.23000
C          6.48165       -1.83837        1.21814
C          7.14641       -3.14725        0.75397
C          7.00278       -1.45590        2.61536
H          6.43589        0.23570        0.53153
H          7.94841       -0.59370        0.18888
H          6.52292       -0.95094       -0.77791
H          6.76891       -3.44424       -0.22436
H          8.22726       -3.02990        0.67747
H          6.94856       -3.96131        1.45027
H          6.52360       -0.54233        2.96688
H          6.79882       -2.24108        3.34241
H          8.07951       -1.28812        2.59819
C          2.64705        4.48418        1.73205
C          2.53654        4.72555        0.21367
C          1.10456        5.16184       -0.13948
C          3.50525        5.86128       -0.16743
H          2.44740        5.39992        2.28818
H          1.93732        3.73084        2.07058
H          3.64733        4.14073        1.99461
H          0.38633        4.37883        0.09917
H          0.82090        6.06022        0.40841
H          1.02230        5.37607       -1.20443
H          3.27859        6.76713        0.39480
H          4.53677        5.58506        0.05061
H          3.42844        6.10535       -1.22675
C          4.97307        3.18888       -4.32815
C          5.24381        2.13191       -3.24059
C          5.35539        0.75154       -3.91722
C          6.58095        2.44147       -2.54270
H          4.96071        4.19513       -3.91151
H          5.74322        3.15993       -5.09880
H          4.01092        3.01507       -4.80786
H          5.59746       -0.02395       -3.19087
H          4.42471        0.48010       -4.41398
H          6.14359        0.75269       -4.66998
H          7.40737        2.41619       -3.25274
H          6.56583        3.42840       -2.08150
H          6.78524        1.71077       -1.76054
H         -1.78103        0.01566       -4.34548
H          1.75506       -0.07493       -4.36209
H         -2.30216       -1.60413       -4.79501
H         -0.90380       -0.88292       -5.58743
H          2.25241        1.53442       -4.87120
H          0.84364        0.77900       -5.61083
