171
-217.83989359
P         -1.51791        0.20738       -0.18724
P          1.68696       -0.66278        0.21338
C         -0.73744        0.77097       -1.71025
C          0.84168       -1.86386       -0.83837
C          0.03425       -0.12452       -2.43982
C          0.67676        0.32157       -3.61073
C          0.47734        1.62714       -4.03004
C         -0.31341        2.49501       -3.30571
C         -0.91805        2.06151       -2.14246
C          0.87155       -3.15662       -0.37079
C          0.21145       -4.16060       -1.05237
C         -0.49297       -3.85479       -2.19667
C         -0.55237       -2.55637       -2.67405
C          0.13553       -1.53630       -1.98972
Cl         1.18150       -0.26737        3.43807
Cl        -1.95413       -0.88991        2.86609
C         -1.36423       -2.27194       -3.88923
C          1.54280       -0.59175       -4.40591
H         -0.45604        3.50849       -3.64352
H         -1.54152        2.72953       -1.57357
H          1.40958       -3.37619        0.53975
H          0.24074       -5.17370       -0.68592
H          0.94257        1.96009       -4.94207
H         -1.02057       -4.62932       -2.72749
C         -4.50038       -3.02463       -1.27564
C         -3.66483       -3.23028       -0.18532
C         -2.77250       -2.22035        0.14736
C         -2.70827       -1.07061       -0.59791
C         -3.52144       -0.89684       -1.69147
C         -4.44513       -1.87212       -2.04943
H         -5.22410       -3.78000       -1.51973
H         -2.12592       -2.31896        1.00000
H         -3.41308       -0.00288       -2.28011
C         -3.81304        3.72415        1.58354
C         -4.16007        3.22930        0.33414
C         -3.44388        2.14453       -0.15587
C         -2.41003        1.59513        0.56358
C         -2.08697        2.10320        1.80028
C         -2.79177        3.16904        2.34178
H         -4.35497        4.56383        1.97835
H         -3.68475        1.72640       -1.11633
H         -1.28416        1.66235        2.35958
C          5.66793       -2.53199        1.31669
C          5.18619       -2.66092        0.01919
C          3.95926       -2.08136       -0.27626
C          3.24871       -1.41327        0.69068
C          3.73875       -1.29983        1.96618
C          4.96373       -1.85719        2.30653
H          6.61444       -2.96985        1.57231
H          3.54633       -2.16045       -1.26853
H          3.14180       -0.78804        2.69767
C          2.82783        3.42687       -1.37907
C          1.86625        3.36071       -0.37762
C          1.49380        2.10361        0.08057
C          2.06949        0.96894       -0.44297
C          3.03370        1.05675       -1.41689
C          3.43577        2.29410       -1.90467
H          3.13141        4.38614       -1.75361
H          0.75830        2.01348        0.85986
H          3.48181        0.14900       -1.78160
Pd        -0.14126       -0.39479        1.63720
C         -5.15225       -4.64007        1.25590
C         -3.75461       -4.53325        0.62049
C         -2.69964       -4.57847        1.74411
C         -3.51462       -5.73042       -0.31780
H         -5.34300       -3.78851        1.90877
H         -5.93186       -4.65962        0.49521
H         -5.24237       -5.54892        1.85057
H         -2.84992       -3.76824        2.45723
H         -2.76065       -5.51677        2.29501
H         -1.69135       -4.49834        1.33838
H         -4.26539       -5.77455       -1.10579
H         -2.53624       -5.65693       -0.79162
H         -3.55314       -6.67066        0.23193
C         -5.48942       -2.92457       -4.09452
C         -5.43493       -1.66625       -3.20592
C         -5.02920       -0.47128       -4.09197
C         -6.82934       -1.39349       -2.61538
H         -4.50365       -3.16477       -4.49051
H         -5.85081       -3.79089       -3.54256
H         -6.16059       -2.77255       -4.93973
H         -5.06096        0.46404       -3.53428
H         -4.02289       -0.60223       -4.48895
H         -5.70912       -0.36847       -4.93757
H         -7.16589       -2.23166       -2.00576
H         -6.81278       -0.50619       -1.98266
H         -7.56429       -1.23347       -3.40406
C         -4.89383        5.34440       -0.78563
C         -5.28921        3.89100       -0.46777
C         -6.58630        3.87177        0.36201
C         -5.55214        3.15248       -1.79530
H         -5.66854        5.84134       -1.36929
H         -4.74088        5.92040        0.12639
H         -3.96707        5.37397       -1.35865
H         -6.47409        4.43302        1.28876
H         -7.41234        4.31293       -0.19556
H         -6.86149        2.84944        0.62074
H         -5.83568        2.11559       -1.61582
H         -6.36405        3.62571       -2.34734
H         -4.66932        3.16526       -2.43437
C         -1.36680        2.92209        4.43855
C         -2.48450        3.72326        3.74049
C         -3.75294        3.63551        4.60965
C         -2.03772        5.19077        3.62049
H         -1.17334        3.31611        5.43599
H         -1.64457        1.87368        4.54609
H         -0.43386        2.97455        3.87920
H         -4.56305        4.23199        4.19203
H         -4.09830        2.60427        4.68057
H         -3.55976        3.99724        5.61940
H         -1.14748        5.27195        2.99863
H         -2.81642        5.80590        3.17097
H         -1.80423        5.60906        4.59940
C          5.07000       -4.59082       -1.57411
C          5.94149       -3.42069       -1.08036
C          7.27871       -3.98813       -0.56706
C          6.23411       -2.46398       -2.25104
H          4.83306       -5.26715       -0.75303
H          4.13015       -4.23478       -1.99476
H          5.58506       -5.16288       -2.34561
H          7.93493       -3.19090       -0.21831
H          7.11900       -4.68902        0.25210
H          7.80176       -4.52232       -1.36021
H          5.31317       -2.07748       -2.68602
H          6.82921       -1.61539       -1.91433
H          6.78715       -2.97161       -3.04113
C          6.90048       -1.03077        3.66923
C          5.54240       -1.75418        3.72513
C          5.72960       -3.16942        4.30179
C          4.60823       -0.96505        4.66397
H          7.61687       -1.57863        3.05825
H          6.78806       -0.03484        3.24111
H          7.32667       -0.92350        4.66657
H          4.77941       -3.70258        4.32729
H          6.42510       -3.75376        3.70052
H          6.12098       -3.12796        5.31810
H          5.03295       -0.89692        5.66532
H          4.45416        0.05093        4.30118
H          3.63661       -1.45087        4.75072
C         -0.25169        4.65394        0.03177
C          1.26699        4.61908        0.27021
C          1.87698        5.90864       -0.31253
C          1.55518        4.58738        1.78269
H         -0.70271        5.52841        0.50009
H         -0.47235        4.69524       -1.03416
H         -0.73289        3.76982        0.44422
H          1.67778        5.98909       -1.38102
H          1.45026        6.78884        0.16832
H          2.95526        5.93797       -0.15674
H          1.09042        3.72356        2.25506
H          2.62759        4.53157        1.96825
H          1.17500        5.48326        2.27275
C          5.67023        3.32803       -2.38680
C          4.54711        2.43929       -2.95458
C          3.96957        3.08447       -4.22610
C          5.15758        1.07421       -3.32695
H          5.30997        4.33149       -2.16389
H          6.06820        2.90246       -1.46574
H          6.49105        3.42066       -3.09781
H          3.53928        4.06242       -4.01326
H          4.74292        3.21590       -4.98271
H          3.18655        2.45935       -4.65207
H          5.58856        0.58981       -2.45114
H          4.40809        0.41016       -3.75543
H          5.95188        1.19264       -4.06379
H         -0.88284       -2.67141       -4.78298
H          2.00769       -1.34655       -3.76956
H         -1.51211       -1.20116       -4.03329
H         -2.34960       -2.73105       -3.80648
H          2.34231       -0.04152       -4.90379
H          0.96531       -1.10626       -5.17480
