171
-217.84793018
P         -1.59802        0.34949       -0.31727
P          1.66164       -0.48624       -0.26078
C         -0.84210        1.22725       -1.68757
C          0.91211       -1.48848       -1.55457
C         -0.06800        0.55211       -2.62395
C          0.54493        1.29028       -3.65444
C          0.34229        2.65912       -3.71892
C         -0.43995        3.30747       -2.78646
C         -1.02757        2.58554       -1.76574
C          1.09022       -2.84909       -1.48370
C          0.46894       -3.68224       -2.39277
C         -0.34614       -3.14244       -3.36455
C         -0.54249       -1.77450       -3.45317
C          0.10909       -0.92319       -2.54005
Cl         1.54573        0.24224        2.89837
Cl        -1.62932       -0.53382        2.83125
C         -1.44197       -1.23748       -4.51116
C          1.38068        0.61942       -4.68796
H         -0.59405        4.37183       -2.85533
H         -1.63599        3.08123       -1.02592
H          1.71693       -3.26412       -0.71119
H          0.61546       -4.74852       -2.33683
H          0.80618        3.21886       -4.51349
H         -0.84614       -3.78761       -4.06725
C         -3.97435       -3.28691       -1.56965
C         -2.98198       -3.42891       -0.60798
C         -2.27128       -2.29453       -0.23957
C         -2.52554       -1.08796       -0.84177
C         -3.48775       -0.96988       -1.81444
C         -4.24367       -2.07382       -2.19202
H         -4.56931       -4.14368       -1.82639
H         -1.51880       -2.34116        0.52790
H         -3.64284       -0.00874       -2.27410
C         -4.25458        3.17555        2.04395
C         -4.83313        2.33381        1.10154
C         -3.99769        1.47471        0.40157
C         -2.64352        1.47351        0.62454
C         -2.08807        2.31985        1.55250
C         -2.88898        3.17293        2.30090
H         -4.87805        3.85165        2.59785
H         -4.41150        0.79456       -0.32134
H         -1.02393        2.29474        1.70646
C          4.66076       -2.83321        2.19953
C          3.31263       -3.15687        2.30194
C          2.41342       -2.44481        1.52026
C          2.84890       -1.44090        0.69199
C          4.18243       -1.12635        0.61130
C          5.12005       -1.82379        1.36200
H          5.37733       -3.37059        2.79170
H          1.35962       -2.66150        1.57400
H          4.48408       -0.32101       -0.03418
C          3.60230        3.40763       -1.49607
C          2.66556        3.41604       -0.46970
C          2.06905        2.20987       -0.12983
C          2.39345        1.05624       -0.79923
C          3.32409        1.06211       -1.80883
C          3.95443        2.24630       -2.17388
H          4.08948        4.32472       -1.76880
H          1.36267        2.16425        0.68121
H          3.56195        0.13220       -2.29658
Pd        -0.01284       -0.16676        1.32073
C         -3.93682       -5.16866        0.91567
C         -2.72496       -4.79320        0.04584
C         -1.46554       -4.76362        0.93501
C         -2.51690       -5.85936       -1.04660
H         -3.78454       -6.13117        1.40369
H         -4.10119       -4.41891        1.68942
H         -4.84449       -5.23515        0.31657
H         -1.26220       -5.74981        1.35199
H         -0.59206       -4.45879        0.35933
H         -1.58678       -4.07431        1.77029
H         -2.28511       -6.82870       -0.60562
H         -3.40766       -5.98078       -1.66138
H         -1.69262       -5.58179       -1.70260
C         -6.72976       -2.12118       -2.43584
C         -5.40058       -1.96567       -3.19614
C         -5.28238       -3.07414       -4.26032
C         -5.40255       -0.60236       -3.91574
H         -7.57960       -2.04679       -3.11408
H         -6.78343       -3.08671       -1.93370
H         -6.83297       -1.34463       -1.67817
H         -4.32720       -3.01426       -4.78025
H         -5.36040       -4.06547       -3.81633
H         -6.07461       -2.98434       -5.00343
H         -4.46088       -0.43141       -4.43636
H         -6.20283       -0.55628       -4.65422
H         -5.56102        0.21453       -3.21243
C         -6.58287        2.64986       -0.66573
C         -6.34144        2.30822        0.81652
C         -7.10411        3.32734        1.68430
C         -6.88898        0.90057        1.11845
H         -7.64795        2.65570       -0.89673
H         -6.17958        3.63378       -0.90455
H         -6.10413        1.92435       -1.32217
H         -8.17192        3.29673        1.46786
H         -6.97668        3.11228        2.74509
H         -6.75786        4.34277        1.49243
H         -7.96252        0.85178        0.93711
H         -6.41097        0.14706        0.49362
H         -6.70892        0.63322        2.15945
C         -0.82421        3.76710        3.66416
C         -2.30622        4.08925        3.38661
C         -3.08699        3.89435        4.70089
C         -2.41969        5.55166        2.92405
H         -0.43809        4.38397        4.47536
H         -0.69764        2.72310        3.95084
H         -0.20947        3.96076        2.78742
H         -4.13158        4.18291        4.59347
H         -3.05678        2.85053        5.01287
H         -2.65908        4.49797        5.50110
H         -2.00418        6.23051        3.66856
H         -1.87986        5.70280        1.98949
H         -3.45976        5.83058        2.75761
C          2.16464       -5.37945        2.40395
C          2.78457       -4.24825        3.24311
C          1.71278       -3.64323        4.17145
C          3.90671       -4.83958        4.11745
H          1.77495       -6.17200        3.04250
H          1.34410       -5.00874        1.79159
H          2.90755       -5.81603        1.73672
H          1.34740       -4.38467        4.88158
H          2.12222       -2.80605        4.73624
H          0.85663       -3.27580        3.60720
H          4.37966       -4.06603        4.72223
H          3.51045       -5.59443        4.79654
H          4.67167       -5.31751        3.50586
C          6.91088       -0.36219        0.29600
C          6.61823       -1.49324        1.30265
C          7.40062       -2.74583        0.86718
C          7.09190       -1.04085        2.69577
H          6.39762        0.55708        0.57776
H          7.97810       -0.14436        0.25769
H          6.59496       -0.64074       -0.70917
H          7.05918       -3.09262       -0.10801
H          8.46733       -2.53396        0.79563
H          7.27054       -3.56185        1.57698
H          6.53102       -0.16701        3.02682
H          6.95211       -1.82771        3.43606
H          8.14970       -0.77877        2.68252
C          2.63761        4.45523        1.80836
C          2.30403        4.68081        0.32139
C          0.80048        4.96872        0.16234
C          3.08929        5.91005       -0.17410
H          2.38564        5.33288        2.40330
H          2.08909        3.60676        2.21484
H          3.70076        4.25337        1.93682
H          0.19832        4.12268        0.48875
H          0.50462        5.83885        0.74794
H          0.55713        5.16727       -0.88050
H          2.81882        6.79729        0.39834
H          4.16314        5.76065       -0.06321
H          2.87447        6.11592       -1.22258
C          4.65016        3.29147       -4.34968
C          5.05231        2.29546       -3.24612
C          5.28364        0.91410       -3.88939
C          6.37108        2.75139       -2.59407
H          3.69971        3.00855       -4.79984
H          4.54322        4.30063       -3.95388
H          5.40103        3.32234       -5.13902
H          5.60416        0.18413       -3.14636
H          4.37743        0.54413       -4.36684
H          6.05975        0.96829       -4.65269
H          6.27595        3.74727       -2.16286
H          6.66214        2.06844       -1.79627
H          7.17866        2.78003       -3.32536
H         -1.70513       -0.19570       -4.32371
H          1.82509       -0.29953       -4.30302
H         -2.36981       -1.80806       -4.55287
H         -0.96941       -1.29689       -5.49254
H          2.19298        1.26773       -5.01664
H          0.78492        0.36526       -5.56543
