64
-97.21507954
Cl        -1.69745       -1.22823       -2.48408
Cl         1.47309       -1.34184       -2.98321
P          1.94664       -0.69033        0.21809
C          2.12238       -2.36781        0.98146
C          3.73145       -0.32412       -0.13592
P         -1.28991       -0.10524        0.45034
C          1.31156        0.55068        1.40208
C         -0.11024        0.81690        1.50973
C         -0.26666        1.94262        2.41885
C          1.04874        2.33034        2.89880
C          2.03002        1.45157        2.28927
H         -1.21567        2.37006        2.74862
H          1.25980        3.12335        3.61964
Pd         0.14238       -0.90812       -1.23762
H          3.11145        1.48234        2.43456
C         -5.00783        2.24901       -0.76597
C         -4.89689        0.90571       -1.06373
C         -3.76234        0.20845       -0.68903
C         -2.74315        0.85140       -0.02388
C         -2.85838        2.18929        0.27970
C         -3.98867        2.89247       -0.09317
H         -5.88977        2.79514       -1.05875
H         -5.69014        0.40058       -1.58999
H         -3.66317       -0.83950       -0.92148
H         -2.06001        2.68554        0.80166
H         -4.07269        3.94108        0.14103
C         -2.66139       -3.90405        2.52814
C         -2.39862       -2.76906        3.27079
C         -1.98920       -1.60967        2.63629
C         -1.84438       -1.59798        1.26835
C         -2.11114       -2.72316        0.52374
C         -2.52027       -3.88326        1.15418
H         -2.98010       -4.80757        3.02193
H         -2.51068       -2.78575        4.34246
H         -1.77439       -0.71532        3.19961
H         -2.00676       -2.68097       -0.54849
H         -2.72970       -4.76696        0.57410
C          4.05628       -0.42763       -1.61020
H          3.93023        0.69069        0.23280
C          4.46619       -1.37963        0.71386
H          4.67491       -0.97537        1.71531
C          3.62616       -2.67811        0.84689
H          5.44838       -1.59589        0.26855
C          1.63590       -2.34592        2.41424
H          1.51771       -3.05888        0.37821
H          3.95919       -3.26850        1.71260
H          3.80054       -3.31659       -0.03133
H          1.73389       -3.32589        2.88728
H          2.21362       -1.63174        3.00442
H          0.58792       -2.04654        2.47341
H          5.11826       -0.25583       -1.79891
H          3.81065       -1.42239       -1.98565
H          3.49150        0.29318       -2.20325
Fe         0.92356        2.43261        0.84106
C          1.49900        4.24037        0.00836
C          0.10097        3.95763       -0.27148
C          0.01698        2.73472       -1.04944
C          1.36100        2.20510       -1.15214
C          2.27894        3.13682       -0.52329
H          1.88959        5.11222        0.53773
H         -0.73809        4.61306       -0.02708
H         -0.88530        2.28170       -1.46304
H          1.63589        1.30919       -1.71113
H          3.36699        3.04467       -0.48960
