105
-153.07157195
Cl         0.42554        2.02586        2.98950
Pd        -0.32870        1.44097        0.94540
P         -1.23564        0.71015       -1.05391
N         -0.29059       -0.46640       -1.94984
C          0.30257       -1.68774       -1.66119
C          0.26616       -2.31202       -0.38915
C          0.99813       -3.49978       -0.17936
C          0.94451       -4.15338        1.18091
C          2.03226       -5.21312        1.41541
C          2.15883       -6.14478        0.20666
C          2.51309       -5.35056       -1.05978
C          1.71873       -4.07907       -1.22621
C          1.70859       -3.46953       -2.47340
C          1.01975       -2.30419       -2.68618
H          1.04769       -1.83271       -3.65319
H          2.26890       -3.91692       -3.27694
H          3.57940       -5.09585       -1.04979
H          2.90305       -6.93111        0.39699
H          2.99383       -4.71447        1.59039
H          1.01597       -3.37396        1.94914
C         -0.68905       -1.88666        0.66241
C         -0.22423       -1.26253        1.85330
C         -1.13222       -1.07139        2.89969
C         -2.44065       -1.46335        2.78083
C         -2.90512       -2.09811        1.63491
C         -4.34120       -2.56647        1.61604
C         -4.79088       -3.22987        0.30257
C         -3.66018       -4.04281       -0.33350
C         -2.44678       -3.14599       -0.61590
C         -2.02135       -2.32983        0.57955
H         -1.60209       -3.75695       -0.95745
H         -4.00319       -4.54044       -1.25170
H         -5.11099       -2.45707       -0.40484
H         -4.98857       -1.71136        1.84819
H         -3.12612       -1.29369        3.59386
H         -0.79442       -0.57807        3.79402
N          1.09231       -0.80362        1.99716
P          1.73854        0.24015        0.72542
C          2.92385       -0.66518       -0.27027
C          3.58483       -1.71319        0.32314
C          4.54582       -2.41065       -0.38616
C          4.85561       -2.05069       -1.69061
C          4.18560       -0.97894       -2.26649
C          3.22862       -0.27982       -1.55361
H          2.71540        0.55781       -1.99514
H          4.41489       -0.69830       -3.28027
C          5.85212       -2.83077       -2.47482
H          5.05561       -3.24274        0.06842
H          3.33522       -1.98543        1.33645
C          2.70040        1.60186        1.39498
C          3.49081        1.40480        2.50116
C          4.23730        2.45474        3.00503
C          4.20387        3.70220        2.39591
C          3.40056        3.87833        1.27722
C          2.65575        2.82779        0.77351
H          2.03346        2.96141       -0.09734
H          3.35800        4.84507        0.80528
C          4.98079        4.84158        2.95765
H          4.84879        2.31160        3.87946
H          3.52096        0.43295        2.96703
H          1.29056       -0.32376        2.86582
H         -0.34042       -0.19489       -2.92423
C         -1.04367        2.26225       -1.93493
C         -2.11121        3.09947       -2.15484
C         -1.91258        4.31087       -2.79129
C         -0.64427        4.69003       -3.21137
C          0.42313        3.83615       -2.96783
C          0.22122        2.62426       -2.33255
H          1.04511        1.95767       -2.13728
H          1.41330        4.12789       -3.27385
C         -0.42426        6.00905       -3.86652
H         -2.74330        4.97506       -2.95813
H         -3.09207        2.80974       -1.81487
C         -2.97573        0.28672       -1.15030
C         -3.84868        0.61746       -0.14154
C         -5.19729        0.34825       -0.27880
C         -5.68581       -0.23839       -1.43816
C         -4.79054       -0.56524       -2.44773
C         -3.44081       -0.29444       -2.30628
H         -2.74556       -0.52977       -3.09636
H         -5.15697       -1.02986       -3.34708
C         -7.13623       -0.54524       -1.58034
H         -5.88185        0.60368        0.51192
H         -3.47701        1.12036        0.73476
Cl        -2.07804        2.82927        1.18228
H          2.37103       -5.97536       -1.95092
H          1.82798       -5.78733        2.33014
H          1.20780       -6.67028        0.05313
H         -0.04651       -4.60385        1.31176
H         -3.36440       -4.84997        0.34837
H         -2.66827       -2.46859       -1.44643
H         -4.48148       -3.26971        2.44576
H         -5.67699       -3.85908        0.46669
H          5.36489       -3.63648       -3.02580
H          6.37076       -2.19603       -3.19464
H          6.60514       -3.27620       -1.82321
H          5.88853        4.49364        3.45262
H          5.27820        5.53985        2.17405
H          4.38699        5.39025        3.68991
H         -1.31401        6.33379       -4.40774
H         -0.18312        6.77304       -3.12616
H          0.39854        5.96105       -4.58122
H         -7.36111       -1.54551       -1.20776
H         -7.74538        0.16625       -1.02112
H         -7.44779       -0.49755       -2.62469
