111
-148.55345730
P         -2.43596        2.31710        0.61854
P          0.06487        0.35876        0.41506
C         -1.40819        2.00642        2.07663
C         -0.34832        1.13099        1.99163
C         -2.79131        4.12258        0.44034
C         -2.43266        4.59702       -0.95079
C         -1.70080        2.61995        3.27791
H         -2.52333        3.31423        3.33422
C         -0.93896        2.33923        4.39900
H         -1.16764        2.81689        5.33770
C          0.10750        1.44094        4.31767
H          0.69534        1.21460        5.19198
C          0.40149        0.83265        3.11052
H          1.20978        0.12205        3.03286
Pd        -1.54103        1.07367       -1.11223
Cl        -3.31903        1.70230       -2.32810
Cl        -0.63159       -0.29901       -2.63692
C         -4.29600        4.21823        0.76791
C         -4.16013        1.65743        0.79461
H         -2.63148        5.66430       -1.07491
H         -1.37703        4.42053       -1.17150
H         -3.01862        4.06276       -1.70077
H         -4.74379        5.04436        0.19647
H         -4.43294        4.48300        1.82667
H         -4.27578        0.87964        0.02760
C         -5.03714        2.88422        0.47172
C         -4.39788        1.07423        2.17134
H         -2.18469        4.64360        1.19357
H         -5.97536        2.82610        1.04247
H         -5.33249        2.86153       -0.58759
H         -3.66459        0.29961        2.40695
H         -4.31665        1.84696        2.93722
H         -5.39453        0.63427        2.25396
C         -0.87852       -4.08856        0.67258
C         -1.92619       -3.13831        0.54028
C         -1.59148       -1.79447        0.51685
C         -0.28130       -1.39267        0.51012
C          0.73658       -2.30980        0.51312
C          0.47354       -3.66888        0.55840
O         -1.18066       -5.43779        0.98999
C         -3.40829       -3.51096        0.36298
H         -2.36162       -1.04200        0.49376
H          1.75045       -1.94969        0.48199
C          1.66394       -4.63858        0.46696
C          4.41122        1.01497       -0.82162
C          3.50121        0.39623       -1.71516
C          2.19434        0.21861       -1.29618
C          1.76070        0.68583       -0.08292
C          2.61105        1.38931        0.73124
C          3.93245        1.60339        0.37645
O          5.80217        1.01766       -1.10926
C          3.91282       -0.09225       -3.11339
H          1.48120       -0.28236       -1.92516
H          2.22914        1.76997        1.66082
C          4.83320        2.43461        1.30362
C         -4.18103       -3.18071        1.64997
C         -4.00148       -2.69386       -0.80737
C         -3.59868       -4.99736        0.01486
C          2.40967       -4.66027        1.81103
C          1.22430       -6.06598        0.09742
C          2.63313       -4.16465       -0.63903
C         -1.28984       -5.66408        2.38518
H         -5.24048       -3.40939        1.53715
H         -3.80252       -3.75330        2.49454
H         -4.09107       -2.12385        1.89750
H         -4.01900       -1.62751       -0.58997
H         -3.41597       -2.84115       -1.71444
H         -5.02673       -2.99878       -1.01495
H         -3.00391       -5.26643       -0.85736
H         -3.29116       -5.63755        0.83831
H         -4.64300       -5.21942       -0.20333
H          1.76375       -5.00997        2.61395
H          3.27559       -5.32025        1.76536
H          2.76050       -3.66344        2.07676
H          0.61524       -6.50639        0.88342
H          0.63501       -6.06108       -0.81887
H          2.08578       -6.71575       -0.05489
H          3.43477       -4.88730       -0.78955
H          2.10600       -4.04499       -1.58515
H          3.09982       -3.21370       -0.38765
H         -1.56925       -6.70327        2.55993
H         -0.33734       -5.46155        2.87189
H         -2.04832       -5.00994        2.81213
C          6.49646       -0.12411       -0.62287
C          2.71836       -0.01366       -4.09178
C          5.03135        0.78742       -3.70086
C          4.37805       -1.55348       -3.02765
C          5.89793        3.20186        0.49851
C          4.00359        3.48865        2.07188
C          5.50857        1.50523        2.32324
H          1.94089       -0.73287       -3.83888
H          2.27734        0.98267       -4.08635
H          3.03703       -0.23339       -5.11039
H          5.27715        0.48196       -4.71759
H          4.72428        1.83244       -3.72539
H          5.94079        0.72113       -3.10900
H          5.21838       -1.66180       -2.34613
H          3.57269       -2.19151       -2.66609
H          4.68650       -1.92317       -4.00518
H          6.57874        2.52184       -0.00756
H          5.42830        3.82918       -0.25840
H          6.49446        3.84226        1.14775
H          4.65463        4.16206        2.62891
H          3.40951        4.09046        1.38460
H          3.33130        3.02612        2.79307
H          4.76238        0.97957        2.91869
H          6.14693        2.06934        3.00277
H          6.12326        0.75746        1.82801
H          5.81205       -0.79072       -0.09652
H          6.95421       -0.65685       -1.45618
H          7.28912        0.19229        0.05495
