171
-217.84557961
P         -1.62315        0.44462       -0.31502
P          1.58849       -0.37844       -0.33861
C         -0.88475        1.42390       -1.62906
C          0.84999       -1.29977       -1.68942
C         -0.08661        0.83257       -2.60264
C          0.56240        1.66001       -3.53935
C          0.36221        3.02948       -3.48750
C         -0.45270        3.59384       -2.52923
C         -1.06823        2.78492       -1.59466
C          1.02646       -2.66094       -1.72914
C          0.43736       -3.40704       -2.73108
C         -0.33754       -2.77979       -3.68387
C         -0.52999       -1.40826       -3.65911
C          0.08508       -0.64555       -2.64794
Cl         1.58931        0.55954        2.84226
Cl        -1.56064       -0.37190        2.87697
C         -1.35991       -0.76243       -4.71298
C          1.46502        1.09618       -4.58063
H         -0.60258        4.66078       -2.50293
H         -1.69353        3.21843       -0.83107
H          1.62863       -3.14125       -0.97476
H          0.58359       -4.47411       -2.76840
H          0.85954        3.65663       -4.20815
H         -0.80407       -3.35839       -4.46326
C         -3.77017       -3.34370       -1.53324
C         -2.83489       -3.39841       -0.50695
C         -2.16875       -2.22653       -0.17648
C         -2.42963       -1.06050       -0.85174
C         -3.36096       -1.01961       -1.85999
C         -4.05602       -2.16899       -2.21898
H         -4.30956       -4.23321       -1.79891
H         -1.45950       -2.21543        0.63336
H         -3.55026       -0.07935       -2.34918
C         -4.50618        2.84883        2.22844
C         -3.15262        3.16199        2.27805
C         -2.28909        2.43796        1.46732
C         -2.76333        1.42953        0.66612
C         -4.10112        1.12404        0.63987
C         -5.00452        1.83567        1.41845
H         -5.19599        3.39796        2.84120
H         -1.23315        2.64972        1.47418
H         -4.43283        0.31423        0.01491
C          4.28571       -2.99707        2.20444
C          4.85671       -2.00321        1.41777
C          4.00920       -1.22098        0.64655
C          2.65426       -1.43646        0.65377
C          2.10715       -2.42187        1.43723
C          2.91249       -3.21075        2.24866
H          4.92487       -3.62063        2.79907
H          4.41160       -0.42884        0.04011
H          1.04061       -2.56253        1.42247
C          3.96297        3.24195       -1.62879
C          2.94721        3.40568       -0.69527
C          2.22508        2.28054       -0.31972
C          2.49772        1.06082       -0.88603
C          3.48910        0.91829       -1.82521
C          4.25144        2.01421       -2.21229
H          4.56284        4.09334       -1.89212
H          1.45236        2.34245        0.42652
H          3.66933       -0.05887       -2.24035
Pd         0.00610        0.06834        1.31956
C         -2.81634       -4.42013        1.78168
C         -2.54127       -4.67825        0.28777
C         -1.06621       -5.06802        0.09097
C         -3.42301       -5.85402       -0.17410
H         -2.62079       -5.31312        2.37498
H         -2.18924       -3.61882        2.16972
H         -3.85581       -4.13191        1.93655
H         -0.86307       -5.28220       -0.95756
H         -0.40207       -4.26321        0.40120
H         -0.81574       -5.95578        0.67131
H         -4.48071       -5.62558       -0.04411
H         -3.24555       -6.08913       -1.22340
H         -3.20514       -6.75095        0.40562
C         -6.50132       -2.51812       -2.62899
C         -5.15638       -2.16272       -3.28983
C         -4.82495       -3.20213       -4.37702
C         -5.29447       -0.78027       -3.95697
H         -7.31017       -2.50735       -3.35935
H         -6.47095       -3.50971       -2.17882
H         -6.74558       -1.80264       -1.84419
H         -4.78903       -4.21000       -3.96549
H         -5.57646       -3.19311       -5.16631
H         -3.85728       -2.99359       -4.83113
H         -4.36422       -0.47937       -4.43692
H         -6.07036       -0.79621       -4.72227
H         -5.56847       -0.01818       -3.22766
C         -2.07958        5.42117        2.30220
C         -2.58660        4.26579        3.18208
C         -1.42153        3.69726        4.01728
C         -3.65317        4.81158        4.15088
H         -2.89329        5.84207        1.71188
H         -1.65326        6.21897        2.91008
H         -1.31173        5.07734        1.61121
H         -1.03454        4.44622        4.70781
H         -1.75065        2.83734        4.60016
H         -0.59519        3.37411        3.38585
H         -3.22470        5.56317        4.81385
H         -4.47355        5.28252        3.60987
H         -4.06035        4.01418        4.77236
C         -6.92825        1.07670        2.83335
C         -6.50603        1.51550        1.41951
C         -6.84489        0.37938        0.43332
C         -7.29622        2.77035        1.00511
H         -6.75450        1.86806        3.56156
H         -7.98748        0.82187        2.86321
H         -6.36064        0.20153        3.14909
H         -6.56505        0.64835       -0.58511
H         -6.32816       -0.54179        0.70235
H         -7.91437        0.16945        0.43707
H         -8.36620        2.56515        0.97533
H         -7.13423        3.59027        1.70374
H         -6.98963        3.10819        0.01531
C          6.63157       -0.28241        1.83039
C          6.36704       -1.73065        1.37657
C          6.87722       -1.92162       -0.06398
C          7.14522       -2.68402        2.30321
H          6.14623        0.43541        1.17003
H          6.24962       -0.11971        2.83797
H          7.69906       -0.06287        1.83331
H          6.38802       -1.23254       -0.75127
H          7.95113       -1.74604       -0.12454
H          6.68008       -2.93571       -0.41104
H          6.82512       -2.57195        3.33895
H          7.00245       -3.72298        2.00668
H          8.21407       -2.47419        2.26397
C          2.21240       -5.60801        2.29187
C          2.29769       -4.31597        3.12021
C          0.88432       -3.91265        3.59128
C          3.15615       -4.56951        4.37607
H          1.61436       -5.45364        1.39448
H          3.20443       -5.93211        1.97788
H          1.75848       -6.41405        2.86810
H          0.18503       -3.85790        2.75932
H          0.48700       -4.64089        4.29803
H          0.90314       -2.94063        4.08391
H          4.12753       -4.99043        4.12004
H          3.31746       -3.64318        4.92715
H          2.66492       -5.27629        5.04475
C          2.48755        5.82531       -1.19344
C          2.68307        4.78400       -0.07516
C          3.88504        5.17909        0.80006
C          1.41492        4.77331        0.80062
H          1.66966        5.53391       -1.85140
H          2.25265        6.80467       -0.77693
H          3.38470        5.93143       -1.80175
H          3.72642        6.15147        1.26597
H          4.04140        4.44601        1.59126
H          4.79942        5.23418        0.21011
H          0.54761        4.45944        0.22065
H          1.52643        4.09890        1.64931
H          1.20952        5.76747        1.19719
C          5.32962        2.95290       -4.28736
C          5.43396        1.88349       -3.18272
C          5.46621        0.49621       -3.85417
C          6.74236        2.07976       -2.39605
H          6.14156        2.84807       -5.00685
H          4.38862        2.86210       -4.82838
H          5.38352        3.95983       -3.87603
H          4.53901        0.29870       -4.39132
H          6.28481        0.43259       -4.57094
H          5.61425       -0.29462       -3.11937
H          6.77693        3.06518       -1.93235
H          6.83154        1.33565       -1.60471
H          7.60964        1.98472       -3.04916
H         -0.76770       -0.56312       -5.60697
H          0.99520        1.13032       -5.56454
H         -1.77674        0.18392       -4.36550
H         -2.19220       -1.40380       -5.00301
H          1.72723        0.05948       -4.36562
H          2.39358        1.66493       -4.63398
