72
-108.40324941
Cl        -1.73166        0.78591        2.71071
Cl         1.06508       -0.75846        2.70794
P          1.12806       -1.11851       -0.31312
P         -2.27950        0.08760       -0.34194
C         -3.26378       -1.51218       -0.07127
C         -3.59541       -1.64762        1.41601
C         -4.54088       -1.47778       -0.90277
C         -3.35634        1.63909       -0.10384
C         -4.18628        1.91097       -1.36460
C         -1.48077        0.35831       -2.02988
C         -1.50558       -0.85109       -2.93981
C          1.11063        0.25491       -1.50174
C         -0.08346        0.95442       -1.97075
C          0.37834        2.06708       -2.80089
C          1.82744        2.02789       -2.85591
C          2.28056        0.88834       -2.08035
C         -2.41542       -2.71265       -0.47110
H         -4.25381       -0.85776        1.76699
H         -4.10135       -2.59461        1.61100
H         -5.22341       -0.70313       -0.55743
H         -5.07071       -2.42911       -0.83137
C         -4.29527        1.51846        1.09250
H         -4.69076        1.01422       -1.71958
H         -3.57809        2.30359       -2.17868
H         -2.11604        1.12320       -2.48606
H         -0.87619       -1.64305       -2.53983
H         -1.11090       -0.60525       -3.92797
H         -2.51325       -1.24264       -3.07901
H         -0.26530        2.74680       -3.36194
H          2.46556        2.70827       -3.42438
Pd        -0.49853       -0.25938        1.16070
H          3.31414        0.58678       -1.89690
C         -2.38633        2.78824        0.12450
H         -4.95193        2.66174       -1.16205
H         -4.78472        2.47330        1.28980
H         -5.08422        0.79065        0.91235
H         -3.75690        1.24035        1.99619
H         -1.64228        2.83668       -0.67181
H         -2.91261        3.74447        0.15286
H         -1.87107        2.66890        1.07628
H         -2.69252       -1.62769        2.02651
H         -4.32584       -1.29753       -1.95547
H         -1.45294       -2.69404        0.03782
H         -2.91101       -3.64481       -0.19513
H         -2.24241       -2.75601       -1.54332
C          2.79286       -1.23275        0.37469
C          3.23201       -2.33168        1.06864
C          4.54821       -2.07088        1.45261
C          4.85647       -0.82153        0.97148
O          3.78726       -0.29634        0.30415
H          2.65287       -3.21807        1.27526
H          5.19428       -2.72146        2.01910
H          5.80407       -0.31198        1.09545
C          0.82322       -2.71791       -1.08181
C          1.21114       -3.01049       -2.36553
C          0.83584       -4.33209       -2.61249
C          0.24008       -4.79174       -1.46319
O          0.22669       -3.80975       -0.51366
H          1.71509       -2.33834       -3.04216
H          0.98927       -4.88535       -3.52459
H         -0.16473       -5.78515       -1.31449
Fe         1.23029        2.16548       -0.90305
C          2.12661        2.02985        0.93076
C          0.82373        2.64290        1.07078
C          0.79214        3.82656        0.23313
C          2.08833        3.95206       -0.40875
C          2.92271        2.85181        0.04076
H          2.45563        1.11730        1.43128
H          0.03307        2.28408        1.73171
H         -0.03703        4.53185        0.14382
H          2.39647        4.75750       -1.07951
H          3.96057        2.66608       -0.24486
