72
-98.09095898
Fe        -0.05669        2.79067       -0.14935
P          1.81528       -0.07632       -0.02041
P         -1.89041       -0.09180       -0.07054
C          1.39711        1.61172        0.57745
C          0.44450        1.93776        1.62514
C          0.39712        3.38313        1.75967
C          1.34504        3.95450        0.82115
C          1.96844        2.86083        0.09606
C         -1.43960        1.51958       -0.82135
C         -2.05266        2.80476       -0.52773
C         -1.39059        3.81269       -1.33915
C         -0.38800        3.14917       -2.15321
C         -0.42330        1.73170       -1.83940
C          2.98471        0.09055       -1.45458
C          4.34198        0.17242       -0.72781
C          2.98069       -0.86298        1.19211
C          4.36778       -0.74714        0.52351
C         -3.35933       -0.78204       -0.95906
C         -4.52547       -0.25926       -0.10293
C         -2.64442        0.13370        1.60838
C         -4.13868       -0.19169        1.39936
H         -0.12261        1.22378        2.22107
H         -0.21954        3.94041        2.46877
H          1.56135        5.01738        0.69201
H          2.73240        2.95998       -0.67753
H         -2.87005        2.97442        0.17658
H          0.21771        0.96243       -2.26989
Cl         1.53895       -3.08672       -0.37290
Cl        -1.64686       -3.06527        0.22698
Pd        -0.03537       -1.50663       -0.03607
H          2.74296        1.02866       -1.96855
C          2.92986       -1.07310       -2.44150
H          2.67925       -1.91329        1.28485
C          2.87979       -0.18968        2.55597
H          4.53775        1.21122       -0.42238
H          5.15453       -0.09178       -1.42121
H          4.72947       -1.74555        0.23796
H          5.09849       -0.37136        1.25269
H         -1.62508        4.87950       -1.35334
H          0.27102        3.62900       -2.88033
H          3.79196       -1.00493       -3.11943
H          3.21457        0.85199        2.46155
H         -3.29630       -1.87393       -0.88983
C         -3.41828       -0.35493       -2.42071
H         -2.50466        1.18942        1.86898
C         -1.97298       -0.76608        2.64256
H         -5.42062       -0.88253       -0.25335
H         -4.80075        0.74369       -0.45879
H         -4.76863        0.53579        1.93257
H         -4.35587       -1.16145        1.86721
H         -4.39962       -0.62461       -2.83533
H         -0.88213       -0.67046        2.56765
C          1.64846       -1.14160       -3.25394
H          1.49055       -0.22526       -3.82562
H          1.65839       -1.97233       -3.96325
H          0.78189       -1.28203       -2.60942
C          3.66824       -0.90810        3.64175
H          4.73266       -0.94872        3.40553
H          3.56799       -0.41708        4.61241
H          3.32642       -1.93826        3.75851
C         -2.31077       -0.96982       -3.25961
H         -1.33055       -0.68650       -2.87801
H         -2.35845       -2.06022       -3.24000
H         -2.36069       -0.65437       -4.30418
C         -2.42547       -0.47552        4.06536
H         -2.19912        0.55462        4.34711
H         -3.50314       -0.60908        4.17464
H         -1.93826       -1.12978        4.79188
H          3.07775       -2.00771       -1.88604
H          1.82150       -0.12822        2.84503
H         -3.37343        0.74089       -2.47199
H         -2.17777       -1.81316        2.38262
