111
-148.55987167
P         -2.44541        2.35870        0.21676
P         -0.05448        0.27589        0.47223
C         -1.69235        2.04186        1.83231
C         -0.66312        1.13235        1.93779
C         -2.71842        4.16522       -0.06772
C         -1.70950        4.71866       -1.05038
C         -2.15534        2.69384        2.95702
H         -2.96711        3.39747        2.86802
C         -1.58068        2.43310        4.18910
H         -1.94080        2.94186        5.06836
C         -0.54948        1.51933        4.29325
H         -0.10303        1.31478        5.25242
C         -0.09114        0.86466        3.16390
H          0.71119        0.14638        3.22865
Pd        -1.20310        1.17595       -1.32530
Cl        -2.58916        2.02916       -2.87286
Cl         0.02760       -0.05673       -2.73519
C         -4.18064        4.21864       -0.54829
C         -4.18571        1.73926        0.09966
H         -0.68745        4.58551       -0.68722
H         -1.78419        4.20659       -2.01120
H         -1.87041        5.78413       -1.23081
H         -4.19158        4.17679       -1.64622
H         -4.63641        5.18519       -0.28464
H         -4.24638        1.18709       -0.84767
C         -5.01449        3.03548        0.02129
C         -4.52957        0.84202        1.26992
H         -2.61749        4.65433        0.90969
H         -5.36907        3.29031        1.02941
H         -5.92330        2.87230       -0.57759
H         -3.84075       -0.00309        1.33815
H         -4.46268        1.39020        2.21123
H         -5.54561        0.44880        1.18808
C         -1.07989       -4.16009        0.55339
C          0.04780       -3.68362        1.27415
C          0.34170       -2.33109        1.21075
C         -0.48205       -1.45942        0.54718
C         -1.64940       -1.89451       -0.02501
C         -1.99548       -3.23522       -0.01467
O         -1.24658       -5.55159        0.33348
C          0.95132       -4.57607        2.14237
H          1.23241       -1.94330        1.67611
H         -2.28971       -1.17483       -0.50490
C         -3.34425       -3.63570       -0.63594
C          4.39843        0.94330       -0.23896
C          3.73658       -0.15319       -0.85184
C          2.38114       -0.31289       -0.61703
C          1.70379        0.51784        0.23619
C          2.36313        1.50704        0.91870
C          3.72116        1.71607        0.74197
O          5.69983        1.31527       -0.66364
C          4.42785       -1.17729       -1.76765
H          1.82696       -1.08442       -1.12468
H          1.80035        2.12610        1.59606
C          4.41039        2.76109        1.63596
C          1.15895       -3.90536        3.51831
C          0.33242       -5.95969        2.40656
C          2.31593       -4.74646        1.45535
C         -3.78106       -5.05084       -0.21933
C         -4.44581       -2.66426       -0.15700
C         -3.24140       -3.55626       -2.16822
C         -0.57013       -6.00872       -0.82587
H          0.20061       -3.70803        3.99787
H          1.74033       -4.54725        4.17972
H          1.69262       -2.96037        3.43169
H          0.25043       -6.53709        1.48887
H          0.94017       -6.53529        3.10435
H         -0.66702       -5.85933        2.82837
H          2.97797       -5.37227        2.05325
H          2.20949       -5.20948        0.47611
H          2.80232       -3.78185        1.31708
H         -3.10222       -5.80438       -0.61159
H         -3.79388       -5.14500        0.86595
H         -4.77874       -5.28022       -0.59291
H         -4.47381       -2.61999        0.93137
H         -4.28704       -1.65593       -0.53514
H         -5.42657       -2.98719       -0.50527
H         -4.19294       -3.80718       -2.63609
H         -2.96440       -2.55194       -2.48761
H         -2.48890       -4.24377       -2.54889
H         -0.71658       -7.08428       -0.92706
H         -0.96252       -5.50781       -1.70912
H          0.49467       -5.79551       -0.74669
C          5.68241        2.23970       -1.73881
C          4.02342       -2.60464       -1.33801
C          3.98025       -0.94158       -3.22002
C          5.96216       -1.10260       -1.68359
C          3.95804        2.56193        3.10001
C          5.94304        2.62614        1.61801
C          4.01216        4.17273        1.17494
H          2.95484       -2.77758       -1.45425
H          4.54037       -3.35240       -1.93887
H          4.28268       -2.77617       -0.29400
H          4.43430       -1.67000       -3.89120
H          2.89811       -1.02761       -3.31322
H          4.26349        0.05221       -3.56162
H          6.42656       -1.90089       -2.26208
H          6.33313       -0.15722       -2.07193
H          6.29523       -1.19292       -0.65025
H          2.89461        2.75801        3.22647
H          4.15390        1.54119        3.42728
H          4.49318        3.23727        3.76710
H          6.34759        2.85169        0.63418
H          6.40611        3.30984        2.32913
H          6.24238        1.61125        1.87739
H          4.32850        4.35632        0.15004
H          4.46935        4.93247        1.80837
H          2.93159        4.30593        1.21782
H          5.12939        1.82423       -2.57985
H          5.20274        3.16613       -1.42795
H          6.70622        2.45080       -2.04829
