58
-89.85832672
P          1.62400        0.51480        0.69766
C          2.62108        1.88031        0.10008
C          2.01210        3.07703       -0.20072
C          2.76985        4.13053       -0.68084
C          4.13075        3.97506       -0.85769
C          4.73584        2.77025       -0.55823
C          3.97582        1.71870       -0.07883
H          4.43132        0.76917        0.15141
H          0.94622        3.17913       -0.06931
C          2.62611       -0.94583        0.97186
C          3.20550       -1.19224        2.19547
C          3.98120       -2.32441        2.36949
C          4.17732       -3.19463        1.31477
C          3.60797       -2.93297        0.08402
C          2.83298       -1.80038       -0.08719
H          2.40536       -1.56037       -1.04803
H          3.05977       -0.49452        3.00425
C          0.65101        1.06205        2.16058
C          0.03070       -0.06712        2.96999
C         -0.61207       -1.16393        2.13335
P         -1.60397       -0.56022        0.70581
C         -2.59296       -1.90514        0.05091
C         -3.95620       -1.76343       -0.07073
C         -4.71026       -2.79759       -0.59524
C         -4.09081       -3.96490       -0.99657
C         -2.72159       -4.10033       -0.87626
C         -1.96974       -3.06434       -0.35091
H         -0.89813       -3.15066       -0.26113
H         -4.42304       -0.84225        0.23852
C         -2.61353        0.88141        1.04628
C         -2.86858        1.74953        0.00922
C         -3.64862        2.87065        0.22521
C         -4.17551        3.10718        1.47969
C         -3.93210        2.22308        2.51288
C         -3.15109        1.10249        2.29364
H         -2.96975        0.39401        3.08554
H         -2.47581        1.52537       -0.97015
Pd        -0.00167        0.00283       -0.88292
Cl         1.47769        0.67752       -2.43221
Cl        -1.60694       -0.39750       -2.40490
H          0.15083       -1.81386        1.69905
H         -1.25804       -1.80438        2.73859
H          0.79250       -0.51577        3.62424
H         -0.71268        0.35520        3.66183
H          1.30287        1.68601        2.77667
H         -0.12381        1.72071        1.76209
H          2.29687        5.06854       -0.92095
H          5.79679        2.64713       -0.70134
H          4.43415       -2.52473        3.32658
H          3.77067       -3.60492       -0.74254
H         -5.77789       -2.68976       -0.69421
H         -2.23781       -5.00885       -1.19530
H         -3.84877        3.55260       -0.58476
H         -4.35254        2.40360        3.48857
H          4.72117        4.79441       -1.23423
H          4.78226       -4.07630        1.45056
H         -4.67671       -4.77038       -1.40844
H         -4.78464        3.97973        1.65097
