111
-148.55915063
P         -2.65679        1.81710        0.71540
P          0.19365        0.47554        0.46554
C         -1.69319        1.47226        2.21237
C         -0.42536        0.94451        2.09413
C         -3.64254        3.37496        0.87500
C         -2.99119        4.52699        0.14149
C         -2.21701        1.73093        3.46294
H         -3.21590        2.12525        3.55182
C         -1.46302        1.46693        4.59347
H         -1.87117        1.66873        5.57036
C         -0.19019        0.94311        4.47191
H          0.39537        0.73479        5.35220
C          0.32819        0.67581        3.21779
H          1.31220        0.24875        3.10629
Pd        -1.16213        1.62082       -1.03181
Cl        -2.75638        2.44346       -2.37741
Cl         0.38896        1.30378       -2.62209
C         -5.02057        2.95681        0.32997
C         -4.01107        0.59987        0.37780
H         -2.89742        4.30705       -0.92264
H         -3.57777        5.44366        0.23705
H         -1.98723        4.72437        0.52471
H         -5.05370        3.17373       -0.74673
H         -5.81481        3.57145        0.78057
H         -3.89553        0.30330       -0.67345
C         -5.28874        1.44170        0.56069
C         -3.91863       -0.60508        1.28889
H         -3.71012        3.59333        1.94822
H         -5.66867        1.28960        1.58029
H         -6.08466        1.07847       -0.10703
H         -4.73641       -1.30654        1.10830
H         -2.97868       -1.14006        1.14326
H         -3.96417       -0.30307        2.33680
C         -1.45738       -3.67887       -0.39467
C         -1.10327       -2.82403       -1.47198
C         -0.58809       -1.57612       -1.17135
C         -0.36889       -1.19078        0.12425
C         -0.58312       -2.06147        1.15996
C         -1.08277       -3.33268        0.93149
O         -2.25917       -4.82492       -0.63101
C         -1.27379       -3.18789       -2.95557
H         -0.36753       -0.87121       -1.95435
H         -0.37642       -1.72940        2.16302
C         -1.19445       -4.28404        2.13396
C          4.72812        0.60825        0.09681
C          4.09550       -0.50167        0.71302
C          2.71262       -0.50841        0.78720
C          1.97518        0.56178        0.35226
C          2.58684        1.68326       -0.14213
C          3.96602        1.75223       -0.25406
O          6.11569        0.55923       -0.20262
C          4.87623       -1.70319        1.26855
H          2.18656       -1.36407        1.17469
H          1.96499        2.50079       -0.46365
C          4.60796        3.03958       -0.79448
C          0.01662       -2.82678       -3.72437
C         -1.51856       -4.69189       -3.16563
C         -2.44881       -2.38684       -3.54190
C         -1.43214       -5.74284        1.70719
C          0.12953       -4.25612        2.92961
C         -2.34181       -3.82130        3.04758
C         -3.64722       -4.54861       -0.54118
H          0.20098       -1.75385       -3.72553
H          0.88066       -3.31678       -3.27654
H         -0.04920       -3.14487       -4.76447
H         -1.54348       -4.94154       -4.22610
H         -0.73000       -5.27877       -2.69597
H         -2.46701       -5.00097       -2.73275
H         -2.58046       -2.60691       -4.60087
H         -3.38023       -2.62394       -3.03133
H         -2.27895       -1.31523       -3.44088
H         -0.66481       -6.06762        1.00533
H         -1.41217       -6.41194        2.56712
H         -2.39823       -5.85969        1.22201
H          0.96992       -4.51301        2.28528
H          0.32320       -3.27497        3.36003
H          0.10457       -4.97196        3.75082
H         -2.42840       -4.46714        3.92095
H         -2.17480       -2.80346        3.39894
H         -3.29479       -3.83866        2.52216
H         -4.20947       -5.45802       -0.75407
H         -3.89536       -4.19817        0.45932
H         -3.92237       -3.77822       -1.25979
C          6.41317        0.00857       -1.47972
C          6.25764       -1.27358        1.79481
C          4.12064       -2.34019        2.45771
C          5.03327       -2.76116        0.16582
C          3.74817        4.27237       -0.43385
C          5.99973        3.26872       -0.17759
C          4.71325        2.94832       -2.32446
H          6.15519       -0.49409        2.54904
H          6.78434       -2.11453        2.24525
H          6.88351       -0.88374        0.99609
H          3.87710       -1.58956        3.20921
H          3.19612       -2.81905        2.13881
H          4.72877       -3.10762        2.93608
H          4.05838       -3.09309       -0.19075
H          5.57928       -2.36457       -0.68673
H          5.57256       -3.63307        0.53515
H          4.26327        5.19468       -0.70149
H          2.79862        4.27143       -0.96694
H          3.54267        4.30227        0.63587
H          6.42649        4.21349       -0.51340
H          5.93820        3.29169        0.90991
H          6.69252        2.47845       -0.45549
H          3.72843        2.80870       -2.76980
H          5.33454        2.10921       -2.62770
H          5.14733        3.85671       -2.74127
H          7.04129       -0.87410       -1.36103
H          5.49398       -0.26578       -1.99893
H          6.96229        0.73895       -2.07374
