72
-98.10213919
Fe        -0.01081        2.77762       -0.09132
P          1.88936       -0.05975       -0.00976
P         -1.84893       -0.09148       -0.09527
C          1.44087        1.59855        0.63633
C          0.45839        1.87651        1.66927
C          0.38618        3.31616        1.84795
C          1.34859        3.93109        0.95225
C          2.00345        2.86979        0.20668
C         -1.38839        1.52964       -0.81433
C         -1.99772        2.81492       -0.51214
C         -1.31477        3.83091       -1.29545
C         -0.29851        3.17286       -2.09648
C         -0.35066        1.75064       -1.80700
C          2.98493        0.16084       -1.49795
C          4.38178        0.39514       -0.87395
C          3.20139       -0.76084        1.09849
C          4.43650        0.03464        0.64147
C         -3.25203       -0.79863       -1.07863
C         -4.47988       -0.27776       -0.31343
C         -2.73108        0.14039        1.52405
C         -4.20411       -0.19436        1.21038
H         -0.10679        1.13296        2.22955
H         -0.25503        3.84140        2.55968
H          1.55171        5.00051        0.86163
H          2.78186        3.00112       -0.54759
H         -2.82921        2.98041        0.17640
H          0.28754        0.98151       -2.24232
Cl         1.58235       -3.10246       -0.25371
Cl        -1.59218       -3.03089        0.29545
Pd         0.03228       -1.48702        0.00664
H          2.63158        1.05106       -2.03182
C          2.97974       -1.04619       -2.43469
H          3.31353       -1.81965        0.83788
C          2.89345       -0.61415        2.58632
H          4.70276        1.43583       -1.02976
H          5.11751       -0.21126       -1.42082
H          5.35868       -0.51635        0.88314
H          4.48686        0.95724        1.23836
H         -1.54189        4.89935       -1.29798
H          0.37777        3.65878       -2.80340
H          3.80932       -0.94467       -3.14838
H          3.82280       -0.75109        3.15663
H         -3.18497       -1.88935       -0.99418
C         -3.22592       -0.38622       -2.54591
H         -2.61577        1.19911        1.78471
C         -2.14451       -0.74113        2.62106
H         -5.35756       -0.90876       -0.52281
H         -4.73569        0.72004       -0.69715
H         -4.87453        0.53437        1.68974
H         -4.45021       -1.16113        1.66993
H         -4.17999       -0.66536       -3.01436
H         -1.05646       -0.61810        2.64803
C          1.68156       -1.24345       -3.19683
H          1.73410       -2.09439       -3.87987
H          0.85307       -1.43191       -2.51641
H          1.43039       -0.36261       -3.79046
C          1.84045       -1.59046        3.08344
H          2.15450       -2.62397        2.92584
H          1.63382       -1.46656        4.14889
H          0.89974       -1.46149        2.55135
C         -2.07016       -1.00239       -3.31350
H         -2.06509       -0.70255       -4.36388
H         -1.11694       -0.70152       -2.88216
H         -2.10806       -2.09284       -3.27970
C         -2.73236       -0.45440        3.99438
H         -2.29799       -1.09287        4.76703
H         -2.55720        0.58235        4.28810
H         -3.81197       -0.61371        4.00646
H          3.21473       -1.94328       -1.84729
H          2.58464        0.42029        2.78441
H         -3.18403        0.70926       -2.60554
H         -2.30149       -1.79329        2.34964
