105
-153.07143556
Cl         0.43122        3.13770        2.48645
Pd        -0.17423        1.79425        0.78581
P         -0.74046        0.51599       -1.13104
N          0.39364       -0.74624       -1.59875
C          0.54337       -2.12330       -1.38727
C          0.02407       -2.82823       -0.26870
C          0.38588       -4.17699       -0.06860
C          0.03692       -4.85898        1.23330
C         -0.02092       -6.38793        1.11303
C          1.27607       -6.91893        0.49388
C          1.51728       -6.30994       -0.89861
C          1.16043       -4.84635       -1.01991
C          1.62658       -4.14670       -2.12551
C          1.34846       -2.81500       -2.29109
H          1.74643       -2.27991       -3.13603
H          2.23205       -4.66280       -2.85142
H          2.56773       -6.43972       -1.18873
H          2.11819       -6.66933        1.15166
H         -0.21341       -6.85476        2.08938
H          0.79271       -4.57876        1.97697
C         -0.72014       -2.11498        0.79577
C         -0.00327       -1.20323        1.60641
C         -0.67064       -0.55279        2.64318
C         -1.99625       -0.80492        2.88662
C         -2.71294       -1.71813        2.12001
C         -4.15518       -1.97862        2.49225
C         -4.90986       -2.96184        1.57636
C         -3.97755       -4.03625        1.00620
C         -2.83104       -3.37567        0.22992
C         -2.07351       -2.37856        1.06813
H         -2.15088       -4.13111       -0.17985
H         -4.52890       -4.74453        0.37170
H         -5.36702       -2.41048        0.74611
H         -4.68231       -1.01676        2.52646
H         -2.49859       -0.29433        3.69068
H         -0.12969        0.15796        3.24230
N          1.34638       -0.95931        1.33978
P          1.87346        0.70501        1.10760
C          2.69043        0.90632       -0.47308
C          2.38392        1.99823       -1.25090
C          2.87267        2.07906       -2.54101
C          3.66429        1.06519       -3.06127
C          3.99430       -0.00983       -2.24734
C          3.50830       -0.08935       -0.95463
H          3.73803       -0.93964       -0.33234
H          4.62419       -0.79158       -2.63644
C          4.18078        1.15036       -4.45508
H          2.62344        2.92408       -3.16003
H          1.74588        2.77464       -0.85953
C          2.86298        1.32175        2.45987
C          2.85551        0.63614        3.65016
C          3.59457        1.10996        4.71952
C          4.33701        2.27761        4.60078
C          4.33704        2.94954        3.38519
C          3.59766        2.47389        2.31716
H          3.58462        2.99844        1.37488
H          4.91720        3.85045        3.28107
C          5.14947        2.77880        5.74374
H          3.59746        0.57519        5.65388
H          2.27513       -0.26895        3.73267
H          1.75390       -1.49488        0.58657
H          1.21563       -0.24047       -1.90749
C         -0.62799        1.73680       -2.44747
C         -1.02405        3.03913       -2.25910
C         -0.90372        3.95439       -3.28676
C         -0.38673        3.57108       -4.51675
C         -0.01801        2.24556       -4.70063
C         -0.13876        1.33330       -3.66777
H          0.15344        0.30527       -3.80785
H          0.36758        1.93264       -5.65587
C         -0.27259        4.55168       -5.63142
H         -1.21363        4.97492       -3.13974
H         -1.43611        3.33180       -1.30872
C         -2.40010       -0.14583       -1.26877
C         -2.61535       -1.03603       -2.29493
C         -3.88958       -1.52184       -2.53407
C         -4.95590       -1.12123       -1.74117
C         -4.72140       -0.21201       -0.71800
C         -3.45005        0.27845       -0.49073
H         -3.27846        1.01957        0.26969
H         -5.54339        0.12058       -0.10745
C         -6.32150       -1.65795       -1.99509
H         -4.06153       -2.22104       -3.33444
H         -1.78159       -1.34562       -2.90571
Cl        -2.17598        2.80752        0.69766
H          0.93906       -6.86611       -1.64623
H         -0.86973       -6.66943        0.47725
H          1.26011       -8.01678        0.44253
H         -0.90740       -4.47096        1.62993
H         -3.56354       -4.63285        1.82857
H         -3.23738       -2.85720       -0.64230
H         -4.17455       -2.35511        3.52214
H         -5.75044       -3.42453        2.11221
H          5.13815        1.67239       -4.48254
H          4.32552        0.15718       -4.88258
H          3.48439        1.68892       -5.09957
H          4.69268        2.51252        6.69792
H          6.15396        2.35409        5.72084
H          5.24226        3.86532        5.71403
H          0.55843        4.30118       -6.29235
H         -1.18527        4.56708       -6.22861
H         -0.10098        5.56015       -5.25247
H         -6.67818       -1.35962       -2.98186
H         -6.32466       -2.74809       -1.95079
H         -7.03705       -1.29281       -1.25712
