111
-148.55142435
P         -1.70917        2.71491        0.34098
P         -0.51802       -0.20736        0.52883
C         -1.74587        1.82364        1.92707
C         -1.29192        0.52184        1.98351
C         -0.57387        4.16718        0.40827
C          0.49119        4.05315       -0.66156
C         -2.18040        2.44504        3.08062
H         -2.47937        3.47911        3.04824
C         -2.19339        1.74984        4.27751
H         -2.53764        2.23496        5.17631
C         -1.75805        0.43939        4.32444
H         -1.76301       -0.09945        5.25760
C         -1.29331       -0.17312        3.17456
H         -0.91197       -1.18204        3.19878
Pd        -1.26085        1.07466       -1.22978
Cl        -1.90931        2.56252       -2.78132
Cl        -0.77494       -0.58922       -2.65635
C         -1.52954        5.36472        0.22333
C         -3.29320        3.53932       -0.16135
H          1.17076        4.90864       -0.64498
H          1.08728        3.14611       -0.53614
H          0.03518        4.01036       -1.65266
H         -1.00540        6.17276       -0.30773
H         -1.79944        5.78232        1.20460
H         -3.64820        2.99541       -1.04745
C         -2.82555        4.96135       -0.53693
C         -4.35150        3.50747        0.92074
H         -0.12301        4.16794        1.40965
H         -3.63355        5.67974       -0.33524
H         -2.64200        5.01817       -1.62007
H         -4.04823        4.10874        1.77821
H         -5.30031        3.91384        0.56280
H         -4.53162        2.48875        1.27120
C         -0.85419       -4.72468        0.09877
C          0.33969       -4.15408        0.60949
C          0.41058       -2.77558        0.72434
C         -0.66621       -1.98477        0.41891
C         -1.85622       -2.53714        0.02498
C         -1.99584       -3.90905       -0.10993
O         -0.89358       -6.10467       -0.23551
C          1.56079       -5.00228        0.99861
H          1.32070       -2.29480        1.03898
H         -2.67497       -1.87395       -0.19677
C         -3.36134       -4.48223       -0.52031
C          3.72869        1.38640        0.13964
C          2.97511        1.67701        1.30598
C          1.68955        1.17127        1.40004
C          1.18143        0.35121        0.42696
C          1.93523       -0.00205       -0.66018
C          3.23105        0.46033       -0.81250
O          4.96077        2.05448       -0.09115
C          3.52273        2.55393        2.44299
H          1.05705        1.42891        2.23091
H          1.47231       -0.61050       -1.41787
C          4.04469       -0.01153       -2.02685
C          2.45911       -5.19707       -0.23221
C          2.38604       -4.30008        2.10094
C          1.12837       -6.36793        1.56257
C         -3.57749       -5.88715        0.07101
C         -4.50819       -3.59206        0.01048
C         -3.44914       -4.53065       -2.05342
C         -0.52103       -6.38718       -1.57869
H          1.92999       -5.71153       -1.03034
H          2.79107       -4.23539       -0.62182
H          3.34285       -5.78346        0.01798
H          2.86721       -3.39612        1.73017
H          1.75396       -4.03155        2.94701
H          3.17631       -4.95445        2.46823
H          0.45747       -6.23757        2.41102
H          0.60766       -6.95960        0.81376
H          1.99038       -6.94463        1.89698
H         -3.47409       -5.86679        1.15538
H         -4.57156       -6.26419       -0.16803
H         -2.85425       -6.59869       -0.31891
H         -5.47566       -4.06123       -0.16704
H         -4.40724       -3.42874        1.08313
H         -4.52869       -2.62235       -0.48445
H         -3.32694       -3.53409       -2.47719
H         -2.67197       -5.16434       -2.47352
H         -4.41371       -4.92023       -2.37772
H         -1.35244       -6.86372       -2.09765
H         -0.24623       -5.46831       -2.09831
H          0.32297       -7.07672       -1.58603
C          4.83655        3.26175       -0.83302
C          5.03758        2.34272        2.61741
C          3.22619        4.03079        2.14220
C          2.85590        2.18615        3.78810
C          3.75767        0.91554       -3.21783
C          5.55224       -0.03371       -1.71665
C          3.64743       -1.45408       -2.41604
H          5.41853        2.91552        3.46254
H          5.26075        1.29075        2.79217
H          5.58573        2.65761        1.73273
H          2.15350        4.19882        2.05763
H          3.60558        4.67425        2.93558
H          3.68515        4.34433        1.20815
H          2.93856        1.11718        3.98280
H          3.33294        2.71439        4.61332
H          1.80125        2.45792        3.80237
H          4.03380        1.94317       -2.99367
H          4.31380        0.60135       -4.10059
H          2.69646        0.90542       -3.46589
H          5.93023        0.96286       -1.50450
H          5.75544       -0.65898       -0.84788
H          6.11970       -0.42860       -2.55900
H          3.72201       -2.11923       -1.55646
H          4.30392       -1.83946       -3.19577
H          2.63030       -1.50457       -2.80132
H          3.78738        3.47606       -1.03986
H          5.27161        4.08405       -0.26514
H          5.38046        3.17399       -1.77321
