111
-148.55525051
P         -2.77977        1.76024       -0.30476
P          0.12579        0.63802        0.21142
C         -1.92298        2.16907        1.24042
C         -0.62901        1.73420        1.42969
C         -3.83205        3.16731       -0.88726
C         -3.16149        3.95899       -1.98860
C         -2.54993        2.91020        2.22188
H         -3.56830        3.23200        2.07915
C         -1.87300        3.22060        3.38880
H         -2.36187        3.79924        4.15551
C         -0.57363        2.78842        3.57324
H         -0.04797        3.02738        4.48306
C          0.04853        2.03765        2.59234
H          1.05475        1.67458        2.72948
Pd        -1.15808        0.90266       -1.71164
Cl        -2.64142        1.08191       -3.37975
Cl         0.54838       -0.04781       -2.82157
C         -5.13718        2.46027       -1.29519
C         -4.06087        0.43129       -0.15259
H         -2.20474        4.36861       -1.65618
H         -2.96335        3.32909       -2.85626
H         -3.78883        4.78875       -2.32224
H         -5.07329        2.18906       -2.35811
H         -5.99010        3.15163       -1.21619
H         -3.84388       -0.29053       -0.95150
C         -5.37662        1.17816       -0.44671
C         -4.00872       -0.23710        1.20405
H         -4.00791        3.80592       -0.01245
H         -5.84610        1.45493        0.50722
H         -6.09401        0.50779       -0.94383
H         -3.04217       -0.71541        1.37198
H         -4.15540        0.49344        2.00172
H         -4.78412       -1.00014        1.30418
C         -1.19756       -3.58935        1.27137
C         -0.77927       -3.29289       -0.05086
C         -0.37396       -2.00096       -0.33308
C         -0.32018       -1.04387        0.64433
C         -0.61286       -1.35510        1.94610
C         -1.01392       -2.63175        2.30190
O         -1.84048       -4.82398        1.55276
C         -0.81230       -4.32686       -1.18605
H         -0.10829       -1.71168       -1.33422
H         -0.54611       -0.57551        2.68441
C         -1.28128       -2.94154        3.78265
C          4.66113        0.95273       -0.00987
C          3.86319        1.76224       -0.85861
C          2.48545        1.64266       -0.77598
C          1.90388        0.80852        0.14171
C          2.66767        0.10012        1.03227
C          4.05006        0.18190        1.01206
O          6.06606        0.88432       -0.20710
C          4.46789        2.72269       -1.89456
H          1.84302        2.18364       -1.44908
H          2.16411       -0.53654        1.73948
C          4.85696       -0.58793        2.06941
C         -0.55256       -5.74703       -0.65239
C         -2.17834       -4.26350       -1.88634
C          0.28992       -4.02720       -2.22786
C         -2.73789       -2.58923        4.12101
C         -1.00523       -4.42235        4.10016
C         -0.34723       -2.10633        4.68818
C         -3.25555       -4.78018        1.41662
H          0.39529       -5.78802       -0.11678
H         -1.33593       -6.06323        0.03186
H         -0.51423       -6.47062       -1.46627
H         -2.98652       -4.49016       -1.19500
H         -2.35771       -3.26732       -2.29047
H         -2.22891       -4.97597       -2.70921
H          1.26295       -3.93322       -1.74651
H          0.35578       -4.82885       -2.96300
H          0.08863       -3.10798       -2.77587
H         -3.43366       -3.15814        3.50870
H         -2.95795       -2.80142        5.16693
H         -2.92964       -1.53108        3.94461
H          0.01335       -4.69077        3.82184
H         -1.13130       -4.62545        5.16334
H         -1.68227       -5.07766        3.55809
H         -0.44228       -2.41323        5.72951
H          0.69416       -2.23615        4.39465
H         -0.58556       -1.04463        4.64538
H         -3.57451       -5.51581        0.67839
H         -3.72330       -5.02841        2.36917
H         -3.57732       -3.78661        1.10182
C          6.47607       -0.14659       -1.09698
C          4.66976        1.97304       -3.22035
C          3.52391        3.92049       -2.14598
C          5.80580        3.30343       -1.40189
C          5.14630       -2.00621        1.55491
C          6.17398        0.13726        2.40023
C          4.05974       -0.69639        3.38976
H          3.72164        1.58201       -3.58891
H          5.08340        2.63210       -3.98316
H          5.34819        1.13218       -3.09860
H          4.00448        4.66489       -2.78045
H          2.60921        3.61401       -2.65116
H          3.25364        4.40467       -1.20794
H          6.20074        4.03233       -2.10914
H          5.67795        3.79871       -0.43996
H          6.55545        2.52588       -1.27916
H          5.72553       -1.98181        0.63506
H          5.70723       -2.58171        2.29084
H          4.21755       -2.53728        1.34731
H          6.83005        0.18398        1.53475
H          5.97817        1.15831        2.72597
H          6.71443       -0.37505        3.19580
H          3.18633       -1.33794        3.28275
H          3.72567        0.28597        3.72272
H          4.67595       -1.12563        4.17948
H          5.60973       -0.69718       -1.46585
H          7.01503        0.28910       -1.93812
H          7.14884       -0.83058       -0.57997
