100
-131.97622016
C         -1.47462        3.94533       -1.35555
C         -2.24123        2.69892       -1.46028
C         -0.09159        3.61765       -1.36094
C          0.07273        2.14650       -1.51843
C          1.22510        1.57317       -2.27133
C         -1.32561        1.59695       -1.55034
C         -1.76080        0.21877       -2.01618
C         -0.87231       -0.40422       -3.07450
Cl         1.06718       -0.47972        2.74970
Cl        -1.78428       -1.58965        2.29640
C          3.27488        0.56108       -3.89107
C          2.56787        1.67658       -4.29547
C          2.97755       -0.03854       -2.67573
C          1.56823        2.17831       -3.50021
C          1.96696        0.44094       -1.87645
H         -3.32642        2.62790       -1.55894
H          0.72711        4.34027       -1.38625
H          0.06718       -0.74164       -2.63875
H         -1.34337       -1.26979       -3.54584
H         -0.63699        0.31175       -3.86538
H          4.06653        0.16860       -4.50812
H          2.80143        2.15165       -5.23455
H          3.56920       -0.87721       -2.34759
H          1.00835        3.04006       -3.82054
H         -1.89468        4.95363       -1.32309
P          1.82831       -0.30393       -0.23772
H         -2.76191        0.34405       -2.44392
P         -2.01430       -0.92694       -0.58298
H         -3.04878       -2.77060       -1.77477
C         -1.96492       -3.76241       -0.18160
C         -2.11282       -2.65380       -1.22916
C         -3.21003       -3.91095        0.69362
H         -3.62908        0.68970        0.15233
C         -4.89550       -0.96654       -0.39630
C         -3.60412       -0.39894        0.19924
H         -4.81966       -2.06699       -0.37817
C         -6.09473       -0.56449        0.46841
H          3.52579       -1.96765       -0.63472
H          2.76653        0.50213        1.84196
C          3.62520        3.09935        1.43654
C          2.72652        2.22304        0.54518
C          2.98389        0.73157        0.79345
C          4.46029        0.40168        0.52555
C          5.39051        1.27226        1.39631
C          5.11029        2.77354        1.18773
H          3.38170        2.91362        2.48997
H          3.42116        4.16629        1.26966
H          2.94100        2.44402       -0.50773
H          1.66489        2.45977        0.67841
H          4.65640       -0.66465        0.69654
H          4.67510        0.57637       -0.53539
H          5.23768        1.01857        2.45270
H          6.44466        1.04051        1.18909
H          5.37542        3.05248        0.16013
H          5.75663        3.38456        1.83363
C          2.26182       -4.33045       -1.34891
C          1.69430       -2.89924       -1.26561
C          2.49342       -2.04325       -0.27532
C          2.52197       -2.70106        1.11316
C          3.09934       -4.12783        1.03976
C          2.29974       -4.98939        0.04338
H          3.27848       -4.29200       -1.75946
H          1.68375       -4.94021       -2.05709
H          0.65283       -2.93470       -0.93052
H          1.66869       -2.42432       -2.25576
H          3.08001       -2.07805        1.82489
H          1.50176       -2.74954        1.50976
H          4.14758       -4.07897        0.71994
H          3.11635       -4.59344        2.03511
H          1.27461       -5.11282        0.41451
H          2.71453       -6.00555       -0.01602
H         -1.11958       -3.48626        0.47409
C         -1.62951       -5.09824       -0.85274
H         -3.55008       -0.65596        1.25689
C         -5.11660       -0.54005       -1.84802
H         -1.31679       -2.74830       -1.96814
H         -3.44866       -2.98626        1.21753
H         -3.07398       -4.68826        1.44715
H         -4.07493       -4.18991        0.09133
H         -0.72939       -5.02770       -1.46446
H         -1.47332       -5.88821       -0.11645
H         -2.44387       -5.41334       -1.50587
H         -5.97323       -0.89618        1.50088
H         -6.20959        0.51986        0.48344
H         -7.02489       -0.98898        0.08737
H         -5.10777        0.54666       -1.93743
H         -4.35207       -0.94219       -2.51278
H         -6.08170       -0.88902       -2.21917
Fe        -1.04431        2.66991        0.19139
C         -1.74366        1.81735        1.97523
C         -2.57779        2.92098        1.54714
C         -1.76424        4.12315        1.50574
C         -0.39942        3.73719        1.81306
C         -0.39263        2.31920        2.11468
H         -2.05614        0.79117        2.17230
H         -3.65699        2.87756        1.38231
H         -2.11220        5.13077        1.26803
H          0.45851        4.41115        1.87562
H          0.45865        1.73062        2.45895
Pd        -0.18834       -0.79877        0.88932
