111
-148.55399987
P         -2.58263        2.02922        1.01204
P          0.12455        0.46090        0.49952
C         -1.47441        1.65334        2.40058
C         -0.28134        1.00551        2.16595
C         -3.50652        3.60365        1.32803
C         -3.37091        4.57008        0.17243
C         -1.82477        1.99723        3.69100
H         -2.76636        2.48774        3.87530
C         -0.97339        1.69704        4.74049
H         -1.24726        1.96562        5.74772
C          0.22434        1.05161        4.49981
H          0.88583        0.81577        5.31711
C          0.56985        0.70080        3.20718
H          1.49380        0.18312        3.00136
Pd        -1.34369        1.58414       -0.89379
Cl        -3.00814        2.45129       -2.11434
Cl         0.06729        1.19663       -2.59810
C         -4.95019        3.11454        1.56861
C         -3.99241        0.83754        0.87668
H         -2.32243        4.78997       -0.04167
H         -3.81083        4.14951       -0.73269
H         -3.88133        5.51437        0.37624
H         -5.65929        3.88316        1.22802
H         -5.13279        3.00150        2.64737
H         -3.87474        0.31275       -0.08156
C         -5.22779        1.76073        0.85622
C         -3.97455       -0.14862        2.02411
H         -3.07899        4.04409        2.23872
H         -6.08003        1.24471        1.32196
H         -5.53018        1.95408       -0.18360
H         -3.03801       -0.71019        2.04642
H         -4.06908        0.37039        2.97975
H         -4.79701       -0.86431        1.95205
C         -1.12569       -3.86763       -0.16804
C         -1.02159       -3.37076        1.15879
C         -0.63759       -2.05205        1.33670
C         -0.43246       -1.22527        0.26381
C         -0.64379       -1.66905       -1.01400
C         -1.04086       -2.97015       -1.26562
O         -1.22563       -5.26340       -0.40090
C         -1.30110       -4.21344        2.41445
H         -0.47422       -1.65981        2.32546
H         -0.47737       -0.97931       -1.82413
C         -1.37947       -3.34483       -2.71778
C          4.54899        0.63524       -0.54831
C          3.97003       -0.57683       -0.09335
C          2.61917       -0.58191        0.20899
C          1.87270        0.56545        0.14171
C          2.44971        1.76182       -0.19211
C          3.79663        1.83782       -0.50884
O          5.86616        0.63659       -1.07960
C          4.76329       -1.88680        0.03317
H          2.12176       -1.49597        0.48447
H          1.82374        2.63688       -0.22319
C          4.40662        3.20621       -0.85040
C          0.03008       -4.54660        3.10860
C         -2.19208       -3.41043        3.38787
C         -2.05316       -5.51617        2.09112
C         -2.29271       -2.25562       -3.32466
C         -0.08287       -3.42912       -3.54014
C         -2.14086       -4.67782       -2.81573
C          0.04010       -5.88728       -0.54153
H          0.68035       -5.12508        2.45510
H          0.56276       -3.63753        3.38638
H         -0.13790       -5.12756        4.01507
H         -2.45064       -4.00959        4.26057
H         -1.69399       -2.51199        3.74839
H         -3.11965       -3.11131        2.90093
H         -2.96577       -5.30496        1.53486
H         -1.44293       -6.18494        1.48884
H         -2.32512       -6.04926        3.00185
H         -3.18408       -2.11683       -2.71353
H         -1.78460       -1.29569       -3.39971
H         -2.61288       -2.53190       -4.32882
H          0.45526       -2.48197       -3.51666
H          0.58155       -4.19795       -3.15048
H         -0.29744       -3.66705       -4.58161
H         -2.45345       -4.87731       -3.84043
H         -1.52088       -5.51075       -2.49278
H         -3.02977       -4.65954       -2.18612
H         -0.10272       -6.94954       -0.74086
H          0.59010       -5.43672       -1.36606
H          0.61976       -5.76753        0.37231
C          5.92491        0.39155       -2.47934
C          4.67840       -2.66067       -1.29141
C          6.23354       -1.61346        0.39782
C          4.17740       -2.77237        1.15750
C          5.89069        3.27160       -0.44611
C          4.25460        3.46534       -2.35707
C          3.68210        4.33407       -0.08099
H          3.64116       -2.88371       -1.54106
H          5.09918       -2.08510       -2.11235
H          5.22084       -3.60365       -1.22831
H          6.74058       -1.05716       -0.38644
H          6.29888       -1.03052        1.31591
H          6.77991       -2.54439        0.54729
H          4.81375       -3.63827        1.33893
H          4.09889       -2.21372        2.08983
H          3.18935       -3.15170        0.90040
H          6.01010        3.04521        0.61287
H          6.48770        2.55828       -1.00860
H          6.30356        4.26319       -0.62986
H          4.66256        4.43830       -2.62958
H          4.77179        2.70831       -2.94151
H          3.20417        3.44561       -2.64662
H          4.19210        5.28695       -0.22079
H          3.65819        4.12091        0.98739
H          2.65855        4.46636       -0.42823
H          6.51975       -0.50145       -2.67035
H          4.92113        0.25360       -2.88332
H          6.40522        1.23309       -2.97827
