111
-148.54868815
P         -1.73222        2.78144        0.19195
P         -0.54051       -0.13751        0.50255
C         -1.44182        2.09499        1.85048
C         -1.01504        0.78880        1.97880
C         -0.55797        4.14948       -0.20664
C          0.25671        3.80770       -1.43608
C         -1.60486        2.87370        2.97876
H         -1.87582        3.91064        2.87581
C         -1.37921        2.33244        4.23244
H         -1.51135        2.94125        5.11199
C         -0.97651        1.01713        4.35792
H         -0.79477        0.59726        5.33357
C         -0.78069        0.24716        3.22597
H         -0.42279       -0.76705        3.30437
Pd        -1.65073        0.94864       -1.22213
Cl        -3.03775        2.00236       -2.62725
Cl        -1.28980       -0.93812       -2.39492
C         -1.48814        5.36792       -0.38778
C         -3.35730        3.64591       -0.04661
H         -0.39698        3.63323       -2.29321
H          0.94333        4.61558       -1.70002
H          0.84822        2.90218       -1.28382
H         -1.06906        6.03785       -1.15272
H         -1.51479        5.95904        0.53951
H         -3.95125        3.00148       -0.70837
C         -2.93573        4.94328       -0.76735
C         -4.11147        3.88467        1.24433
H          0.09346        4.27296        0.66856
H         -3.65063        5.74524       -0.53150
H         -2.99783        4.80040       -1.85638
H         -4.23942        2.95807        1.80811
H         -3.58036        4.59509        1.87832
H         -5.10264        4.30331        1.05520
C         -0.44496       -4.65742        1.03045
C         -1.59578       -4.04446        0.47180
C         -1.59786       -2.66770        0.31852
C         -0.54202       -1.90841        0.74833
C          0.52925       -2.48534        1.37927
C          0.58951       -3.85509        1.57662
O         -0.31059       -6.07120        1.00684
C         -2.80905       -4.85147       -0.01593
H         -2.41670       -2.16769       -0.16924
H          1.33278       -1.84580        1.70323
C          1.78309       -4.44507        2.34418
C          3.59498        1.34929       -0.71655
C          2.79423        0.64352       -1.65048
C          1.56978        0.15853       -1.22653
C          1.09823        0.42422        0.03131
C          1.81868        1.20138        0.89974
C          3.05988        1.70294        0.54829
O          4.93834        1.68353       -1.03465
C          3.22160        0.41117       -3.10828
H          0.94119       -0.41070       -1.88782
H          1.39388        1.41500        1.86429
C          3.81704        2.59984        1.53971
C         -3.01559       -6.11675        0.83631
C         -4.10394       -4.01548        0.09953
C         -2.60286       -5.23144       -1.49022
C          2.29643       -3.44353        3.40421
C          1.38190       -5.72615        3.09785
C          2.92370       -4.74340        1.35926
C          0.34442       -6.57069       -0.15261
H         -2.17626       -6.80101        0.74152
H         -3.11767       -5.85738        1.88952
H         -3.91345       -6.65309        0.53026
H         -4.22109       -3.61936        1.10786
H         -4.10927       -3.18152       -0.60064
H         -4.97900       -4.62522       -0.12426
H         -2.48322       -4.33883       -2.10391
H         -1.71269       -5.84225       -1.61924
H         -3.45508       -5.79283       -1.87218
H          3.05682       -3.90377        4.03479
H          2.75068       -2.56652        2.94548
H          1.48326       -3.11139        4.04915
H          1.08262       -6.51401        2.41134
H          2.21120       -6.10631        3.69387
H          0.54462       -5.53101        3.76708
H          3.79031       -5.15271        1.87783
H          2.61458       -5.46120        0.60326
H          3.23590       -3.83470        0.84491
H          1.24149       -7.11628        0.13955
H         -0.31667       -7.25991       -0.67774
H          0.61760       -5.75065       -0.81794
C          5.87954        0.66312       -0.72679
C          4.10862        1.56199       -3.61693
C          3.97097       -0.92551       -3.21225
C          1.98443        0.35759       -4.03477
C          4.62262        3.67974        0.79517
C          2.83583        3.33587        2.48039
C          4.75329        1.73382        2.39576
H          4.35795        1.42905       -4.66936
H          3.59630        2.51739       -3.50779
H          5.04194        1.61970       -3.06282
H          3.33514       -1.74904       -2.88795
H          4.27975       -1.12120       -4.23878
H          4.86046       -0.92926       -2.58685
H          2.28575        0.32603       -5.08146
H          1.37905       -0.52851       -3.85064
H          1.35588        1.23660       -3.89404
H          3.96971        4.27106        0.15388
H          5.11332        4.35525        1.49541
H          5.39387        3.23716        0.16931
H          2.32932        2.64674        3.15472
H          3.36467        4.05883        3.10103
H          2.08185        3.87592        1.90932
H          5.29356        2.34195        3.12086
H          5.48514        1.21727        1.77995
H          4.18746        0.97930        2.94193
H          6.36776        0.32537       -1.64061
H          6.64462        1.06323       -0.06157
H          5.38307       -0.18060       -0.24573
