171
-217.84880145
P         -1.57449        0.35272       -0.32139
P          1.61444       -0.47589       -0.26324
C         -0.83223        1.25315       -1.68488
C          0.88399       -1.46645       -1.57579
C         -0.07063        0.58813       -2.63843
C          0.53464        1.33824       -3.66511
C          0.33471        2.70827       -3.70951
C         -0.43679        3.34621       -2.76104
C         -1.01566        2.61260       -1.74377
C          1.05759       -2.82805       -1.51568
C          0.45242       -3.64983       -2.44568
C         -0.34260       -3.09766       -3.42708
C         -0.53403       -1.72833       -3.50497
C          0.10297       -0.88833       -2.57122
Cl         1.45970        0.08180        3.01836
Cl        -1.65689       -0.56418        2.84526
C         -1.41698       -1.17895       -4.57038
C          1.36139        0.68100       -4.71448
H         -0.58910        4.41170       -2.81461
H         -1.61601        3.10017       -0.99228
H          1.66814       -3.25276       -0.73558
H          0.59576       -4.71696       -2.39867
H          0.79257        3.27723       -4.50104
H         -0.83131       -3.73416       -4.14546
C         -3.97505       -3.24195       -1.65167
C         -2.99292       -3.41010       -0.68399
C         -2.27251       -2.28991       -0.29071
C         -2.51050       -1.07063       -0.87390
C         -3.46550       -0.92610       -1.85065
C         -4.22838       -2.01609       -2.25447
H         -4.57480       -4.08871       -1.92977
H         -1.52484       -2.35709        0.48009
H         -3.61103        0.04581       -2.29055
C         -4.23863        3.12438        2.09554
C         -4.82594        2.23799        1.20231
C         -3.98958        1.39692        0.47993
C         -2.62712        1.45920        0.63793
C         -2.06496        2.34656        1.52311
C         -2.86486        3.18245        2.29165
H         -4.87150        3.78755        2.65572
H         -4.39792        0.67978       -0.20848
H         -0.99453        2.36984        1.62536
C          4.63002       -2.84426        2.15858
C          3.28571       -3.17947        2.26066
C          2.37661       -2.45822        1.49705
C          2.80521       -1.44309        0.67774
C          4.13785       -1.12382        0.59294
C          5.08235       -1.82418        1.33165
H          5.34464       -3.38352        2.75283
H          1.32189       -2.66480        1.55655
H          4.43426       -0.31026       -0.04435
C          3.63598        3.38068       -1.49069
C          2.69974        3.40803       -0.46434
C          2.07359        2.21561       -0.12819
C          2.37174        1.05637       -0.80037
C          3.30133        1.04419       -1.81128
C          3.95964        2.21408       -2.17308
H          4.14529        4.28663       -1.76012
H          1.36250        2.18513        0.67946
H          3.51741        0.11047       -2.30197
Pd        -0.02941       -0.15097        1.35158
C         -2.54693       -5.83682       -1.16196
C         -2.75993       -4.78906       -0.05274
C         -3.98852       -5.16787        0.79210
C         -1.51460       -4.78945        0.85519
H         -1.70970       -5.55639       -1.80006
H         -2.33272       -6.81684       -0.73595
H         -3.42938       -5.93657       -1.79240
H         -3.85309       -6.14049        1.26478
H         -4.15709       -4.43056        1.57682
H         -4.88779       -5.21448        0.17865
H         -1.33092       -5.78452        1.26008
H         -0.62804       -4.48775        0.29799
H         -1.64111       -4.11097        1.69854
C         -6.71176       -2.07269       -2.53623
C         -5.37232       -1.88479       -3.27093
C         -5.23329       -2.96105       -4.36538
C         -5.37259       -0.50060       -3.94908
H         -6.83082       -1.32351       -1.75428
H         -7.55184       -1.97946       -3.22423
H         -6.76808       -3.05501       -2.06813
H         -5.30557       -3.96530       -3.95030
H         -6.01961       -2.85747       -5.11297
H         -4.27452       -2.87818       -4.87494
H         -6.16626       -0.43490       -4.69319
H         -5.53963        0.29434       -3.22290
H         -4.42683       -0.31125       -4.45578
C         -6.84593        3.57944        0.56330
C         -6.35292        2.20354        1.04697
C         -6.99418        1.86820        2.40610
C         -6.79538        1.13856        0.02421
H         -6.38402        3.84043       -0.38874
H         -7.92709        3.58021        0.42567
H         -6.60060        4.36245        1.27986
H         -8.07946        1.81316        2.32265
H         -6.63421        0.90746        2.77373
H         -6.75547        2.62307        3.15429
H         -6.37896        1.34505       -0.96144
H         -6.47714        0.14326        0.33387
H         -7.88077        1.12233       -0.07355
C         -0.78603        3.84259        3.59867
C         -2.27078        4.15274        3.32283
C         -3.03344        4.02843        4.65665
C         -2.39153        5.58854        2.78567
H         -0.39319        4.48908        4.38317
H         -0.65593        2.80947        3.92095
H         -0.17935        4.00522        2.71045
H         -4.07617        4.32467        4.55284
H         -3.00920        3.00029        5.01740
H         -2.58658        4.66425        5.42077
H         -3.43428        5.85581        2.61631
H         -1.96917        6.30619        3.48878
H         -1.86278        5.69113        1.83826
C          1.32318       -4.52944        3.15324
C          2.84151       -4.27950        3.23450
C          3.18847       -3.84723        4.67051
C          3.56855       -5.59313        2.89279
H          0.76181       -3.63364        3.41839
H          1.03463       -4.83631        2.14866
H          1.02288       -5.32070        3.83989
H          4.26135       -3.70154        4.79081
H          2.69396       -2.90784        4.91733
H          2.86914       -4.59817        5.39288
H          3.35520       -5.89487        1.86746
H          4.64806       -5.48830        2.99345
H          3.24999       -6.39826        3.55470
C          6.86356       -0.34277        0.27813
C          6.57819       -1.48363        1.27539
C          7.36854       -2.72777        0.83023
C          7.04833       -1.03971        2.67246
H          7.92945       -0.11831        0.24098
H          6.54847       -0.61524       -0.72894
H          6.34500        0.57105        0.56785
H          7.24384       -3.54987        1.53397
H          7.02895       -3.06941       -0.14741
H          8.43383       -2.50851        0.75998
H          6.91362       -1.83376        3.40599
H          8.10432       -0.77029        2.66188
H          6.48133       -0.17260        3.01072
C          2.67124        4.44115        1.81707
C          2.36672        4.68100        0.32602
C          0.87591        5.01628        0.14340
C          3.19794        5.88677       -0.15233
H          2.43605        5.32394        2.41127
H          2.09303        3.60762        2.21289
H          3.72617        4.20840        1.96044
H          0.24296        4.18564        0.45025
H          0.59603        5.88978        0.73186
H          0.65752        5.23122       -0.90179
H          2.94996        6.77889        0.42270
H          4.26488        5.70119       -0.02993
H          3.00251        6.10648       -1.20179
C          5.25223        0.85957       -3.89908
C          5.05889        2.24155       -3.24483
C          6.38943        2.65626       -2.58916
C          4.68554        3.25748       -4.34048
H          5.55367        0.11534       -3.16227
H          4.33592        0.51787       -4.37821
H          6.02878        0.89878       -4.66286
H          6.32099        3.65059       -2.14940
H          6.66217        1.95917       -1.79732
H          7.19753        2.66942       -3.32032
H          3.72653        3.00701       -4.79157
H          4.60964        4.26646       -3.93716
H          5.43620        3.27174       -5.13049
H         -2.35173       -1.73700       -4.61960
H          1.78779       -0.25639       -4.35451
H         -0.93728       -1.24498       -5.54787
H         -1.66839       -0.13394       -4.38496
H          2.18634        1.32341       -5.02229
H          0.76433        0.46307       -5.60079
