59
-75.80269894
Cl         1.62441        0.51095        2.37484
P          1.60900       -0.01957       -0.77480
P         -1.55159       -0.08418       -0.83097
C          0.71148        0.51897       -2.29462
H          0.53921        1.59416       -2.21781
H          1.36044        0.35664       -3.16038
C         -0.58699       -0.23215       -2.40754
H         -0.39724       -1.29274       -2.58823
H         -1.20460        0.12872       -3.23587
C          2.36577       -1.68505       -1.06352
H          1.70625       -2.25438       -1.72972
C          3.18520        0.91830       -0.51721
H          3.35884        0.89175        0.56596
C         -2.40844       -1.64879       -0.31589
H         -2.16106       -1.79222        0.74320
C         -3.02218        1.03272       -1.00304
H         -3.19615        1.14139       -2.08047
C          3.68344       -1.29440       -1.76515
H          4.42750       -2.09430       -1.63449
H          3.51054       -1.23245       -2.85070
C          4.24597        0.06703       -1.25186
H          4.65200        0.64664       -2.09282
H          5.10432       -0.10815       -0.58666
C         -3.90072       -1.31005       -0.47248
H         -4.24406       -1.66416       -1.45409
H         -4.49932       -1.86367        0.26672
C         -4.15566        0.21636       -0.35680
H         -4.22781        0.49395        0.70398
H         -5.12568        0.48890       -0.79996
C          2.58117       -2.43890        0.24836
H          3.02074       -1.74702        0.97920
H          3.34206       -3.21699        0.09480
C          3.09897        2.36567       -0.98515
H          4.10718        2.80310       -0.99052
H          2.77282        2.38223       -2.03300
C         -1.95467       -2.85756       -1.12536
H         -2.22443       -2.70124       -2.17808
H         -0.85834       -2.91005       -1.11176
C         -2.81839        2.40273       -0.36600
H         -3.78119        2.93193       -0.34121
H         -2.53846        2.26622        0.68600
C          1.31632       -3.07086        0.81002
H          0.91184       -3.81868        0.12562
H          0.53541       -2.32927        0.97542
H          1.49787       -3.56819        1.76546
C          2.17486        3.20974       -0.12094
H          2.09018        4.23543       -0.48687
H          2.53215        3.25545        0.90959
H          1.17060        2.78787       -0.08611
C         -2.54328       -4.16556       -0.61859
H         -2.26716       -4.34383        0.42247
H         -2.19924       -5.02313       -1.20136
H         -3.63372       -4.15438       -0.66444
C         -1.78006        3.24941       -1.08068
H         -2.04950        3.40862       -2.12650
H         -1.65938        4.23107       -0.61677
H         -0.80647        2.76229       -1.06982
Cl        -1.71173        0.64645        2.25877
Pd        -0.00527        0.26582        0.85704
