171
-217.84772855
P         -1.61951        0.42339       -0.25751
P          1.59663       -0.40026       -0.30241
C         -0.88175        1.38260       -1.58480
C          0.83116       -1.34992       -1.61917
C         -0.10856        0.76787       -2.56384
C          0.52209        1.57373       -3.53134
C          0.33054        2.94521       -3.50011
C         -0.45700        3.53241       -2.53244
C         -1.05578        2.74485       -1.56915
C          0.99563       -2.71322       -1.62899
C          0.38442       -3.47843       -2.60236
C         -0.39913       -2.86749       -3.55871
C         -0.57905       -1.49397       -3.56486
C          0.05638       -0.71209       -2.58119
Cl         1.62273        0.36730        2.88856
Cl        -1.52985       -0.32125        2.95132
C         -1.42292       -0.86874       -4.61990
C          1.39277        0.98378       -4.58510
H         -0.60099        4.60042       -2.52311
H         -1.66112        3.19481       -0.79880
H          1.60727       -3.18133       -0.87502
H          0.52119       -4.54732       -2.61413
H          0.81303        3.55583       -4.24464
H         -0.88400       -3.46063       -4.31567
C         -3.86898       -3.26321       -1.59366
C         -2.89969       -3.38899       -0.60703
C         -2.21449       -2.24381       -0.22155
C         -2.47724       -1.04106       -0.82801
C         -3.42770       -0.93535       -1.81413
C         -4.15276       -2.05255       -2.21292
H         -4.43605       -4.13190       -1.87311
H         -1.48162       -2.27531        0.56576
H         -3.60667        0.02983       -2.25666
C         -4.46321        2.91007        2.25558
C         -4.98300        1.93213        1.41805
C         -4.08926        1.19520        0.65232
C         -2.74017        1.44249        0.71724
C         -2.24475        2.41998        1.54512
C         -3.10141        3.17003        2.34150
H         -5.13817        3.47586        2.87119
H         -4.43977        0.40829        0.00928
H         -1.18046        2.57532        1.58391
C          4.42236       -2.89784        2.22950
C          3.06411       -3.19425        2.25807
C          2.21728       -2.44757        1.44881
C          2.70998       -1.42871        0.67198
C          4.05137       -1.13864        0.67274
C          4.93885       -1.87177        1.44720
H          5.09289       -3.47516        2.83609
H          1.15977       -2.64873        1.43676
H          4.41218       -0.32248        0.07213
C          3.95748        3.16894       -1.75317
C          2.96471        3.37008       -0.80251
C          2.24016        2.26400       -0.37631
C          2.48983        1.02551       -0.91210
C          3.45952        0.84597       -1.86798
C          4.22323        1.92205       -2.30476
H          4.55807        4.00656       -2.05611
H          1.48326        2.35505        0.38326
H          3.62468       -0.14566       -2.25436
Pd         0.01511        0.02219        1.35771
C         -2.35991       -5.80698       -1.02765
C         -2.64870       -4.75004        0.05499
C         -3.89592       -5.15613        0.85923
C         -1.44090       -4.69387        1.00895
H         -1.50313       -5.51310       -1.63264
H         -2.13870       -6.77476       -0.57790
H         -3.21098       -5.93875       -1.69437
H         -3.74619       -6.11530        1.35455
H         -4.11945       -4.41180        1.62335
H         -4.76887       -5.24437        0.21324
H         -1.23778       -5.67526        1.43726
H         -0.54729       -4.36825        0.47762
H         -1.62362       -4.00666        1.83459
C         -6.62330       -2.26892       -2.54520
C         -5.28525       -1.97261       -3.24689
C         -5.04965       -3.01058       -4.36088
C         -5.36955       -0.57478       -3.89052
H         -6.80653       -1.55157       -1.74602
H         -7.45435       -2.21106       -3.24791
H         -6.62513       -3.26568       -2.10532
H         -5.82614       -2.94569       -5.12292
H         -4.08854       -2.84930       -4.84660
H         -5.05781       -4.02617       -3.96747
H         -4.43528       -0.31264       -4.38560
H         -6.16127       -0.54087       -4.63881
H         -5.59073        0.18879       -3.14514
C         -7.22508        2.96937        0.97895
C         -6.49585        1.67437        1.38163
C         -6.96535        1.22384        2.77675
C         -6.85948        0.57472        0.36422
H         -8.30167        2.80926        0.92269
H         -7.04467        3.76684        1.69874
H         -6.88375        3.31523        0.00339
H         -6.77413        1.99174        3.52543
H         -8.03460        1.01296        2.77983
H         -6.44113        0.31928        3.08457
H         -7.93667        0.41056        0.33952
H         -6.54464        0.85310       -0.64132
H         -6.38831       -0.37280        0.62519
C         -3.22138        5.58654        3.00977
C         -2.58633        4.22188        3.33357
C         -1.05474        4.36779        3.26054
C         -2.96600        3.79332        4.76273
H         -2.98161        5.88981        1.99073
H         -4.30618        5.55196        3.10235
H         -2.85416        6.35773        3.68670
H         -0.55741        3.42832        3.50144
H         -0.74495        4.68050        2.26461
H         -0.70186        5.11839        3.96755
H         -2.59463        4.50811        5.49679
H         -4.04663        3.72341        4.88114
H         -2.54045        2.81722        4.99522
C          3.50733       -4.81591        4.16969
C          2.48411       -4.31657        3.13069
C          2.08239       -5.49317        2.22561
C          1.24790       -3.79516        3.89163
H          3.06048       -5.56551        4.82271
H          4.36882       -5.27706        3.68754
H          3.85839       -3.99583        4.79588
H          1.36218       -5.17794        1.47267
H          2.95210       -5.89272        1.70431
H          1.63463       -6.29960        2.80607
H          0.85519       -4.55614        4.56562
H          1.50405       -2.91765        4.48491
H          0.44526       -3.51452        3.21199
C          6.61304       -0.04460        1.83120
C          6.43176       -1.51559        1.41003
C          6.96109       -1.71191       -0.02261
C          7.25489       -2.40185        2.36404
H          6.21056        0.12126        2.83024
H          7.66726        0.23157        1.84076
H          6.09928        0.63105        1.14829
H          6.43114       -1.07490       -0.72951
H          8.02180       -1.46931       -0.08431
H          6.83098       -2.74542       -0.34294
H          6.91731       -2.28753        3.39397
H          7.17725       -3.45339        2.08844
H          8.30985       -2.12996        2.33035
C          3.96603        5.18551        0.59852
C          2.73220        4.77117       -0.22232
C          1.49548        4.80178        0.69526
C          2.50824        5.77550       -1.36875
H          4.86053        5.21383       -0.02293
H          3.82998        6.17415        1.03654
H          4.14401        4.47804        1.40827
H          1.63144        4.14999        1.55799
H          1.31601        5.80951        1.06967
H          0.60354        4.48296        0.15646
H          1.66607        5.47024       -1.98852
H          2.29653        6.77092       -0.97872
H          3.38511        5.85143       -2.01025
C          6.71028        1.97418       -2.54188
C          5.38538        1.75224       -3.29362
C          5.26167        2.78095       -4.43430
C          5.40046        0.34110       -3.91371
H          6.75806        2.97736       -2.11928
H          6.81294        1.26277       -1.72282
H          7.56381        1.84891       -3.20786
H          4.31192        2.67112       -4.95592
H          5.32201        3.80205       -4.06049
H          6.06136        2.64997       -5.16316
H          5.55945       -0.42261       -3.15296
H          4.46258        0.12782       -4.42576
H          6.20516        0.24777       -4.64286
H         -1.78791        0.11109       -4.30895
H          0.88985        0.98562       -5.55311
H         -2.29126       -1.48871       -4.84192
H         -0.85935       -0.74211       -5.54517
H          1.66827       -0.04461       -4.34788
H          2.31551        1.55519       -4.68688
