171
-217.84562328
P         -1.62919        0.38630       -0.31505
P          1.61998       -0.44135       -0.32137
C         -0.89362        1.31704       -1.66376
C          0.86772       -1.40662       -1.63984
C         -0.12028        0.67286       -2.62236
C          0.49542        1.44351       -3.62717
C          0.29502        2.81373       -3.64781
C         -0.49026        3.43144       -2.69763
C         -1.07948        2.67731       -1.70191
C          1.06227       -2.76664       -1.63417
C          0.43980       -3.56340       -2.57453
C         -0.39355       -2.98876       -3.51049
C         -0.60338       -1.62013       -3.53515
C          0.05330       -0.80500       -2.59321
Cl         1.64840        0.28258        2.78169
Cl        -1.59169       -0.32256        2.87510
C         -1.51941       -1.04163       -4.55651
C          1.33315        0.80676       -4.68044
H         -0.64456        4.49750       -2.73197
H         -1.69183        3.15229       -0.95285
H          1.70433       -3.20961       -0.89049
H          0.60011       -4.62914       -2.57093
H          0.76208        3.39825       -4.42247
H         -0.89569       -3.60654       -4.23589
C         -3.96412       -3.26181       -1.60571
C         -2.93086       -3.41636       -0.69042
C         -2.22282       -2.28203       -0.31504
C         -2.52888       -1.06068       -0.86111
C         -3.54059       -0.92646       -1.77997
C         -4.28724       -2.03316       -2.16806
H         -4.54879       -4.12242       -1.87348
H         -1.43180       -2.33942        0.41225
H         -3.74776        0.05184       -2.17937
C         -4.29099        2.99255        2.27297
C         -2.92680        3.25603        2.23768
C         -2.13787        2.46844        1.40955
C         -2.69042        1.44269        0.68367
C         -4.03602        1.18133        0.75105
C         -4.86860        1.96116        1.54295
H         -4.92637        3.59865        2.89067
H         -1.07789        2.64106        1.33945
H         -4.43031        0.35421        0.18871
C          4.52391       -2.90176        2.14478
C          3.17315       -3.22798        2.18395
C          2.30321       -2.48466        1.39748
C          2.76906       -1.44792        0.62808
C          4.10416       -1.13013        0.61298
C          5.01360       -1.85882        1.36825
H          5.21827       -3.46387        2.74033
H          1.24884       -2.70406        1.39726
H          4.42929       -0.29714        0.01579
C          3.79787        3.32565       -1.55123
C          4.07130        2.14673       -2.23458
C          3.36579        1.00507       -1.87132
C          2.43536        1.05755       -0.86266
C          2.18469        2.22823       -0.19173
C          2.86330        3.39224       -0.52505
H          4.34637        4.20896       -1.81886
H          3.54686        0.06131       -2.35695
H          1.47249        2.22720        0.61562
Pd        -0.01192       -0.05813        1.30548
C         -3.81645       -5.22732        0.79205
C         -2.63254       -4.79705       -0.09130
C         -1.35556       -4.77217        0.77059
C         -2.42965       -5.82019       -1.22494
H         -3.97827       -4.50788        1.59459
H         -4.73627       -5.29308        0.21174
H         -3.63329       -6.20232        1.24326
H         -0.50089       -4.43590        0.18461
H         -1.47074       -4.10882        1.62740
H         -1.12750       -5.76648        1.15421
H         -1.62621       -5.50400       -1.88907
H         -2.16967       -6.79960       -0.82373
H         -3.33189       -5.93711       -1.82366
C         -6.77501       -2.21832       -2.34872
C         -5.48072       -1.92197       -3.12775
C         -5.32782       -2.93870       -4.27544
C         -5.58648       -0.51120       -3.73922
H         -6.76023       -3.22401       -1.92980
H         -6.89851       -1.51602       -1.52499
H         -7.64822       -2.13715       -2.99577
H         -5.31472       -3.96213       -3.90321
H         -6.15467       -2.85513       -4.98060
H         -4.40204       -2.77055       -4.82375
H         -4.67725       -0.24894       -4.27960
H         -6.41755       -0.45574       -4.44219
H         -5.75911        0.23994       -2.96878
C         -2.14574        5.62520        2.11756
C         -2.29752        4.40443        3.03963
C         -0.91293        3.98447        3.57618
C         -3.17495        4.78919        4.24765
H         -1.53880        5.38075        1.24693
H         -3.11849        5.96127        1.75893
H         -1.67121        6.45537        2.64044
H         -0.49883        4.75254        4.22908
H         -0.98495        3.05891        4.14705
H         -0.19970        3.82803        2.76926
H         -4.12681        5.21362        3.93052
H         -3.37608        3.91959        4.87310
H         -2.67741        5.53737        4.86465
C         -6.72076        1.30987        3.09774
C         -6.37694        1.69507        1.64765
C         -6.81610        0.54648        0.71767
C         -7.15089        2.96489        1.24764
H         -6.16474        0.42303        3.40129
H         -6.47093        2.11345        3.78960
H         -7.78406        1.09553        3.20361
H         -6.31961       -0.38662        0.98352
H         -7.89063        0.37892        0.78970
H         -6.58653        0.77711       -0.32247
H         -6.92112        3.79680        1.91217
H         -6.89547        3.26678        0.23203
H         -8.22662        2.79464        1.28863
C          3.68465       -4.91941        4.01606
C          2.62096       -4.37321        3.04409
C          2.16250       -5.51401        2.11976
C          1.42634       -3.86348        3.87543
H          4.52434       -5.35759        3.47718
H          4.06316       -4.12912        4.66415
H          3.26343       -5.69769        4.65234
H          2.99965       -5.89820        1.53723
H          1.74168       -6.33911        2.69412
H          1.40333       -5.16810        1.42030
H          0.60094       -3.54606        3.24012
H          1.05039       -4.64359        4.53700
H          1.72077       -3.01235        4.48899
C          7.31878       -2.76296        0.95585
C          6.51163       -1.52327        1.38348
C          6.91913       -1.10106        2.80650
C          6.84446       -0.36971        0.41581
H          7.16491       -3.59406        1.64296
H          7.02025       -3.09142       -0.03955
H          8.38624       -2.54417        0.93302
H          6.34156       -0.23532        3.13011
H          6.74585       -1.90430        3.52175
H          7.97589       -0.83785        2.84847
H          7.91251       -0.15276        0.42454
H          6.56761       -0.62517       -0.60692
H          6.32147        0.54390        0.69812
C          4.85532        3.17432       -4.39061
C          5.17078        2.12690       -3.30622
C          5.28684        0.74450       -3.97763
C          6.52113        2.46019       -2.64508
H          3.88491        2.98171       -4.84587
H          4.83460        4.18153       -3.97648
H          5.60697        3.15615       -5.17961
H          5.55188       -0.02367       -3.25140
H          4.35076        0.45870       -4.45563
H          6.06066        0.75135       -4.74514
H          6.75570        1.73833       -1.86330
H          7.32926        2.44066       -3.37607
H          6.50511        3.45028       -2.19086
C          3.48239        5.84064       -0.19382
C          2.58039        4.67839        0.26317
C          2.83708        4.42215        1.76071
C          1.11289        5.08616        0.05055
H          3.31587        6.07713       -1.24459
H          3.27339        6.74143        0.38317
H          4.53568        5.59690       -0.05597
H          2.19245        3.63374        2.14644
H          3.86998        4.11699        1.92666
H          2.65120        5.32101        2.34825
H          0.86838        5.98003        0.62402
H          0.92206        5.29691       -1.00105
H          0.43700        4.29049        0.35900
H         -1.05695       -1.04881       -5.54447
H          0.74870        0.61926       -5.58209
H         -1.78956       -0.01258       -4.31603
H         -2.44322       -1.61717       -4.61546
H          1.74388       -0.14476       -4.33999
H          2.17021        1.44878       -4.95485
