105
-153.07004812
Cl         0.34622        3.19742        2.40693
Pd        -0.18887        1.79048        0.72874
P         -0.71328        0.47477       -1.16115
N          0.44415       -0.78186       -1.58045
C          0.52690       -2.17014       -1.38607
C          0.00380       -2.84993       -0.25269
C          0.31119       -4.21333       -0.06045
C         -0.02241       -4.87955        1.25358
C         -0.17368       -6.40156        1.12923
C          1.07260       -7.00246        0.47097
C          1.31164       -6.39840       -0.92438
C          1.02505       -4.91818       -1.03380
C          1.49510       -4.24023       -2.15140
C          1.27873       -2.89609       -2.30853
H          1.68200       -2.37773       -3.16135
H          2.05601       -4.78384       -2.89286
H          2.34741       -6.57866       -1.23920
H          1.94539       -6.80760        1.10690
H         -0.36591       -6.86206        2.10863
H          0.78034       -4.64887        1.96433
C         -0.68817       -2.10308        0.82545
C          0.06864       -1.18363        1.59216
C         -0.54358       -0.52604        2.65808
C         -1.86060       -0.75992        2.95853
C         -2.62282       -1.66027        2.22138
C         -4.05715       -1.88554        2.64409
C         -4.86704       -2.85010        1.75613
C         -3.98146       -3.94986        1.16068
C         -2.84614       -3.32006        0.34380
C         -2.03523       -2.33911        1.15095
H         -2.20091       -4.09274       -0.08929
H         -4.57081       -4.64693        0.54830
H         -5.33561       -2.28848        0.93901
H         -4.55910       -0.91101        2.69499
H         -2.32230       -0.23867        3.77993
H          0.02874        0.18560        3.22602
N          1.38683       -0.91158        1.22562
P          1.88262        0.76973        1.09397
C          2.72533        1.04329       -0.46347
C          2.40932        2.15180       -1.21322
C          2.91484        2.28072       -2.49287
C          3.72901        1.29541       -3.03303
C          4.06176        0.19904       -2.24920
C          3.56150        0.07344       -0.96570
H          3.79377       -0.79310       -0.36675
H          4.70738       -0.56160       -2.65412
C          4.26436        1.43188       -4.41565
H          2.66057        3.14052       -3.08904
H          1.75229        2.90463       -0.80741
C          2.83505        1.32785        2.49740
C          2.89653        0.52984        3.61400
C          3.61461        0.95005        4.71940
C          4.26798        2.17553        4.71087
C          4.20144        2.96101        3.56733
C          3.48336        2.53861        2.46297
H          3.41935        3.14979        1.57658
H          4.71344        3.90787        3.54799
C          5.05932        2.62138        5.89097
H          3.67129        0.32749        5.59588
H          2.38775       -0.42091        3.60999
H          1.68871       -1.34836        0.36187
H          1.29647       -0.28644       -1.81614
C         -0.58903        1.68104       -2.48703
C         -0.02995        1.28406       -3.67878
C          0.10144        2.19001       -4.71586
C         -0.32588        3.50198       -4.56354
C         -0.91078        3.87772       -3.36174
C         -1.04141        2.96891       -2.32948
H         -1.49859        3.25545       -1.39761
H         -1.26365        4.88751       -3.23965
C         -0.19833        4.47517       -5.68321
H          0.54143        1.88307       -5.64928
H          0.30838        0.26692       -3.79177
C         -2.36126       -0.21006       -1.31569
C         -2.55416       -1.13132       -2.31840
C         -3.82030       -1.63699       -2.55883
C         -4.90178       -1.21988       -1.79482
C         -4.68794       -0.28465       -0.79078
C         -3.42430        0.22459       -0.56159
H         -3.26788        0.98707        0.18106
H         -5.51982        0.05194       -0.19599
C         -6.25492       -1.79529       -2.02917
H         -3.97360       -2.36572       -3.33629
H         -1.70941       -1.45078       -2.90841
Cl        -2.20274        2.79350        0.66340
H          0.68977       -6.92182       -1.66053
H         -1.05477       -6.62915        0.51620
H          0.99097       -8.09708        0.41367
H         -0.92358       -4.43942        1.69343
H         -3.55484       -4.55305        1.97171
H         -3.27053       -2.79231       -0.51393
H         -4.04994       -2.26094        3.67452
H         -5.70191       -3.28917        2.32007
H          5.22284        1.95259       -4.41058
H          4.41329        0.45509       -4.87805
H          3.57773        1.99568       -5.04892
H          5.05917        3.70891        5.97649
H          4.64740        2.21738        6.81678
H          6.09543        2.28987        5.81036
H         -1.07863        4.44288       -6.32656
H         -0.09187        5.49430       -5.30891
H          0.67622        4.25572       -6.29736
H         -6.47819       -1.84625       -3.09575
H         -6.32195       -2.80537       -1.62238
H         -7.03050       -1.19109       -1.55660
