115
-277.93901332
P         -1.53000        0.51041        0.15737
P          2.12886        0.16069        0.15375
C         -2.43810        2.04877       -0.05735
C         -3.77095        2.08184        0.29676
H         -4.29155        1.16190        0.51317
C         -4.38761        3.30082        0.50519
H         -5.38694        3.34451        0.90758
C         -3.67428        4.48021        0.34325
C         -2.38267        4.42917       -0.15409
H         -1.83815        5.35420       -0.26464
C         -1.75862        3.21374       -0.34099
H         -0.72460        3.18117       -0.64185
C         -2.58046       -0.78344       -0.53697
C         -3.07707       -1.77059        0.28303
H         -2.81249       -1.78553        1.32735
C         -3.92971       -2.72619       -0.22893
H         -4.33901       -3.49727        0.40435
C         -4.29288       -2.69663       -1.56240
C         -3.79140       -1.70185       -2.37768
H         -4.09944       -1.67677       -3.41126
C         -2.93467       -0.75102       -1.86497
H         -2.55156        0.03093       -2.49926
C         -1.28259        0.21913        1.94963
C         -0.53704       -0.92263        2.16493
H         -0.15369       -1.46232        1.32030
C         -0.11461       -1.29723        3.43859
C         -0.66174       -0.62063        4.52175
H         -0.38802       -0.91348        5.52160
C         -1.41670        0.51754        4.32184
H         -1.72637        1.09974        5.17328
C         -1.63758        1.02619        3.04142
C          1.81332        0.80786        1.83157
C          1.06985        1.97500        1.80977
H          0.70616        2.34877        0.86744
C          0.64230        2.58508        2.98936
C          1.18025        2.12343        4.18521
H          0.89677        2.59960        5.10894
C          1.93047        0.96535        4.21516
H          2.22818        0.55313        5.16433
C          2.15864        0.22339        3.05705
C         -1.91390        2.50988        2.93902
H         -2.61832        2.80238        3.72672
H         -2.46264        2.71683        2.02469
C         -0.62223        3.40364        3.00708
H         -0.60584        4.12786        2.18601
H         -0.63554        4.02083        3.91246
C          1.15524       -2.09274        3.59446
H          1.08969       -3.00196        2.98730
H          1.22133       -2.45454        4.62631
C          2.43379       -1.25386        3.22222
H          3.21457       -1.39251        3.97808
H          2.87402       -1.62935        2.30183
C          2.20213       -1.63501       -0.01300
C          1.06075       -2.35377       -0.29876
C          3.37449       -2.28814        0.30224
C          1.05222       -3.71952       -0.11838
C          3.36523       -3.65672        0.48430
C          2.18815       -4.37013        0.33493
C          3.61135        0.92162       -0.52796
C          3.95507        2.18220       -0.09751
C          4.39014        0.27082       -1.45606
C          5.08971        2.79324       -0.59148
H          3.34274        2.68186        0.63535
C          5.52220        0.88295       -1.95211
H          4.10352       -0.70812       -1.80530
C          5.87757        2.14852       -1.52407
H          5.38975        3.77199       -0.25215
H          6.14811        0.38287       -2.67376
Pd         0.33723        0.69316       -1.25995
Cl        -1.15392        1.54622       -2.71838
Cl         1.89056        0.60698       -2.88393
H          4.23907       -4.17452        0.84810
H          4.27106       -1.72016        0.49579
H          0.13853       -4.28164       -0.22645
H          0.15691       -1.84906       -0.59735
C         -5.64714        5.87512        1.12058
C         -4.09869        5.75394        1.03182
C         -3.41101        5.72862        2.43505
F         -5.96616        7.09015        1.59304
F         -6.13913        5.71656       -0.11707
F         -6.12946        4.91784        1.92488
F         -3.63765        6.81446        0.36434
F         -3.74144        4.59305        3.06473
F         -2.08620        5.74190        2.23310
F         -3.78840        6.79926        3.14629
C         -4.99639       -5.11468       -1.61964
C         -5.30116       -3.67120       -2.11653
C         -6.72381       -3.19243       -1.70844
F         -5.78382       -5.98191       -2.27499
F         -3.70613       -5.36905       -1.88590
F         -5.21204       -5.18996       -0.29870
F         -5.24153       -3.68186       -3.45104
F         -6.91701       -1.98837       -2.26781
F         -7.63729       -4.06580       -2.15835
F         -6.78659       -3.08541       -0.37291
C          8.33056        2.22562       -1.14234
C          7.15659        2.79977       -1.98604
C          7.36197        2.58520       -3.51480
F          8.09997        2.55235        0.13819
F          8.35378        0.89079       -1.27094
F          9.48690        2.76337       -1.55808
F          7.10330        4.11652       -1.76676
F          7.58610        1.28690       -3.76098
F          6.23804        2.97743       -4.13324
F          8.40006        3.32828       -3.92854
C          1.52625       -5.46478        2.42322
C          2.07819       -5.72474        0.98686
C          1.17946       -6.68629        0.15778
F          0.33860       -4.85114        2.33411
F          1.42059       -6.62408        3.08652
F          2.38857       -4.64503        3.03990
F          3.28547       -6.28370        1.10188
F         -0.07877       -6.22453        0.13703
F          1.67020       -6.72435       -1.09027
F          1.22164       -7.90944        0.70900
