58
-89.86830675
P          1.70009        0.36125        0.78264
C          3.13348        1.31777        0.28776
C          4.29903        0.67837       -0.06752
C          5.39733        1.42094       -0.46211
C          5.31774        2.79920       -0.49940
C          4.14475        3.43588       -0.14422
C          3.04790        2.69053        0.25077
H          2.12139        3.17256        0.52091
H          4.34246       -0.39851       -0.04066
C          1.94906       -1.39403        0.47978
C          1.90523       -1.83186       -0.82456
C          2.06054       -3.17549       -1.10962
C          2.26510       -4.07379       -0.08153
C          2.32510       -3.62969        1.22478
C          2.17096       -2.28415        1.50574
H          2.23678       -1.92754        2.52039
H          1.75027       -1.11197       -1.61283
C          1.30956        0.74090        2.53629
C          0.11844       -0.02032        3.09802
C         -1.23564        0.48975        2.62834
P         -1.67506        0.05202        0.89780
C         -1.60307       -1.71657        0.57657
C         -1.59042       -2.12749       -0.73725
C         -1.50464       -3.47337       -1.04085
C         -1.43727       -4.40176       -0.02134
C         -1.46649       -3.98767        1.29585
C         -1.55425       -2.64026        1.59563
H         -1.59882       -2.31118        2.62062
H         -1.64853       -1.38517       -1.51783
C         -3.30745        0.70788        0.54788
C         -4.34344       -0.14613        0.24616
C         -5.59708        0.36640       -0.03492
C         -5.80199        1.73199       -0.01332
C         -4.75831        2.58497        0.28752
C         -3.50550        2.06931        0.56895
H         -2.67766        2.72313        0.79456
H         -4.16565       -1.20921        0.22615
Pd        -0.08460        0.78468       -0.61902
Cl         1.40677        1.25288       -2.23669
Cl        -1.81632        1.07486       -2.02914
H         -2.04497        0.08855        3.24353
H         -1.28803        1.57661        2.71327
H          0.21471       -1.08349        2.84856
H          0.15398        0.02118        4.19791
H          2.22263        0.51772        3.09386
H          1.15109        1.81807        2.61252
H          6.31110        0.92387       -0.74356
H          4.08094        4.51103       -0.17902
H          2.01751       -3.51894       -2.13004
H          2.49166       -4.33094        2.02590
H         -1.48592       -3.79426       -2.06932
H         -1.42048       -4.71380        2.09079
H         -6.41025       -0.29907       -0.27400
H         -4.91683        3.65080        0.29849
H          6.17161        3.37904       -0.80990
H          2.38134       -5.12297       -0.29919
H         -1.36475       -5.45166       -0.25392
H         -6.77746        2.13309       -0.23532
