111
-148.55978690
P         -2.46322        2.43778        0.10867
P         -0.07843        0.34673        0.40746
C         -1.72041        2.14282        1.73058
C         -0.71775        1.20721        1.86095
C         -2.66100        4.23765       -0.26031
C         -1.68198        4.66880       -1.33062
C         -2.18742        2.81597        2.84093
H         -2.97617        3.54246        2.72950
C         -1.64871        2.54469        4.08691
H         -2.01214        3.06928        4.95542
C         -0.65336        1.59555        4.21908
H         -0.23832        1.37875        5.18963
C         -0.18942        0.92231        3.10315
H          0.58218        0.17345        3.19184
Pd        -1.31807        1.13231       -1.40263
Cl        -2.82828        1.70892       -2.95441
Cl        -0.17646       -0.35912       -2.63775
C         -4.14215        4.34884       -0.66959
C         -4.23235        1.89253        0.04596
H         -0.64911        4.50306       -1.01420
H         -1.83858        4.09819       -2.24826
H         -1.79737        5.72750       -1.57502
H         -4.21036        4.28012       -1.76407
H         -4.53808        5.34275       -0.41131
H         -4.34283        1.33319       -0.89254
C         -5.00329        3.22336       -0.02932
C         -4.59103        1.02254        1.23243
H         -2.47724        4.77349        0.67994
H         -5.29758        3.52032        0.98665
H         -5.94591        3.08824       -0.58118
H         -4.48538        1.57655        2.16652
H         -5.62359        0.67063        1.17302
H         -3.93668        0.15040        1.29741
C         -0.94850       -4.11841        0.57409
C          0.21645       -3.60118        1.20174
C          0.45564       -2.23939        1.11660
C         -0.45030       -1.39850        0.52481
C         -1.64366       -1.87491        0.04826
C         -1.93870       -3.22728        0.08196
O         -1.08321       -5.51530        0.36726
C          1.22229       -4.45668        1.99085
H          1.36819       -1.81977        1.50599
H         -2.34326       -1.17869       -0.38078
C         -3.31263       -3.67604       -0.44308
C          4.42532        0.92795       -0.10376
C          3.71243        0.04532       -0.95640
C          2.34254       -0.05963       -0.78846
C          1.69010        0.60024        0.21955
C          2.39405        1.36368        1.11532
C          3.76709        1.51383        1.01002
O          5.76431        1.28364       -0.40874
C          4.36522       -0.81215       -2.05385
H          1.75699       -0.64945       -1.47135
H          1.85680        1.85163        1.90907
C          4.49478        2.28318        2.12619
C          2.53523       -4.56508        1.19800
C          1.50791       -3.78096        3.35032
C          0.68628       -5.86656        2.29403
C         -4.41131       -2.73905        0.10653
C         -3.31764       -3.60089       -1.97918
C         -3.67084       -5.10269        0.00752
C         -0.47804       -5.95220       -0.83845
H          3.26792       -5.16459        1.73758
H          2.37196       -5.02800        0.22653
H          2.96856       -3.58005        1.02915
H          0.58260       -3.62845        3.90519
H          2.16798       -4.39768        3.95978
H          1.98998       -2.81246        3.22777
H          1.37008       -6.41629        2.94041
H         -0.28143       -5.81092        2.79134
H          0.55962       -6.44537        1.38240
H         -4.36280       -2.68375        1.19368
H         -4.31658       -1.72991       -0.29047
H         -5.40223       -3.09997       -0.16784
H         -4.29002       -3.88530       -2.38022
H         -3.09639       -2.58954       -2.31931
H         -2.57037       -4.26458       -2.40899
H         -3.60610       -5.19077        1.09144
H         -4.68325       -5.36814       -0.29595
H         -2.99490       -5.83495       -0.42771
H         -0.58086       -7.03440       -0.92094
H         -0.96121       -5.47944       -1.69159
H          0.57832       -5.68832       -0.84448
C          5.85206        2.41780       -1.25529
C          5.89556       -0.88215       -1.91305
C          3.83755       -2.26082       -1.95438
C          4.00050       -0.23749       -3.43275
C          3.98076        1.80186        3.50174
C          6.01448        2.04279        2.10706
C          4.21008        3.78702        1.98166
H          6.35178        0.09149       -2.07472
H          6.17446       -1.22012       -0.91561
H          6.32563       -1.57194       -2.63885
H          4.03293       -2.67193       -0.96486
H          2.76588       -2.31733       -2.13743
H          4.32597       -2.90316       -2.68663
H          4.43319       -0.83833       -4.23214
H          2.92025       -0.21959       -3.57384
H          4.36628        0.78164       -3.54289
H          4.54148        2.26908        4.31093
H          2.93115        2.04878        3.65197
H          4.09047        0.72187        3.59674
H          6.23522        0.97644        2.13963
H          6.46673        2.44948        1.20564
H          6.49825        2.51680        2.96078
H          4.57490        4.16700        1.02937
H          4.69491        4.35308        2.77663
H          3.14019        3.98717        2.03159
H          5.33764        2.22349       -2.19510
H          5.39113        3.27935       -0.77520
H          6.90108        2.63590       -1.45660
