59
-75.79931261
Cl         1.48454        0.70360        2.40868
P          1.51815        0.19705       -0.80631
P         -1.62241       -0.22599       -0.77318
C          0.54188        0.37274       -2.36223
H          0.21558        1.41186       -2.44763
H          1.19598        0.16330       -3.21410
C         -0.63773       -0.55645       -2.30334
H         -0.30081       -1.59578       -2.26249
H         -1.29326       -0.45735       -3.17420
C          2.54266       -1.34250       -0.82364
H          2.55056       -1.70071       -1.86018
C          2.84639        1.46878       -0.59360
H          2.76506        1.82617        0.44022
C         -2.75997       -1.62126       -0.34091
H         -2.71168       -1.72782        0.74977
C         -2.86004        1.13107       -1.02232
H         -2.83491        1.37660       -2.09082
C          3.93811       -0.83989       -0.41190
H          4.05230       -0.96583        0.67362
H          4.72156       -1.46543       -0.86616
C          4.14073        0.65606       -0.77964
H          4.45986        0.73396       -1.82810
H          4.95809        1.09657       -0.18856
C         -4.13678       -1.08166       -0.76241
H         -4.33169       -1.38006       -1.80186
H         -4.93265       -1.55199       -0.16474
C         -4.19866        0.46540       -0.64544
H         -4.44710        0.73882        0.38937
H         -5.01553        0.87294       -1.26015
C          1.95993       -2.40481        0.10063
H          0.90322       -2.56302       -0.15396
H          1.95236       -2.01460        1.12726
C          2.68934        2.63283       -1.56460
H          2.73496        2.24624       -2.59127
H          1.68218        3.05796       -1.46014
C         -2.36085       -2.93088       -1.01029
H         -2.39449       -2.79754       -2.09951
H         -1.31046       -3.14981       -0.77579
C         -2.55054        2.36945       -0.18619
H         -3.41345        3.04893       -0.22583
H         -2.46800        2.07065        0.86713
C          2.71454       -3.72434        0.04401
H          3.75803       -3.59749        0.33774
H          2.71238       -4.13596       -0.96707
H          2.27673       -4.47506        0.70590
C          3.73460        3.71987       -1.36253
H          4.74444        3.33226       -1.50829
H          3.68921        4.12556       -0.35008
H          3.60011        4.55241       -2.05692
C         -3.23980       -4.10155       -0.59601
H         -4.28401       -3.92791       -0.86194
H         -3.20455       -4.25691        0.48395
H         -2.93133       -5.03478       -1.07281
C         -1.29464        3.10568       -0.62373
H         -1.12023        4.00616       -0.03039
H         -0.41065        2.47670       -0.52067
H         -1.35759        3.40844       -1.67060
Cl        -1.71595        0.01457        2.38738
Pd        -0.05312        0.13105        0.88313
