171
-217.84472888
P         -1.63583        0.43801       -0.39084
P          1.61767       -0.37674       -0.34492
C         -0.88057        1.43128       -1.68238
C          0.91949       -1.28290       -1.72577
C         -0.04021        0.84953       -2.62530
C          0.63203        1.68481       -3.53863
C          0.41001        3.05114       -3.49835
C         -0.45218        3.60487       -2.57601
C         -1.08947        2.78908       -1.66227
C          1.14283       -2.63566       -1.80221
C          0.58706       -3.37292       -2.82939
C         -0.20757       -2.74707       -3.76654
C         -0.44421       -1.38348       -3.70595
C          0.14598       -0.62716       -2.67603
Cl         1.57194        0.37016        2.80231
Cl        -1.58455       -0.27582        2.84423
C         -1.28595       -0.73038       -4.74524
C          1.58861        1.13405       -4.53810
H         -0.62103        4.66921       -2.56017
H         -1.75309        3.21543       -0.92778
H          1.75728       -3.11606       -1.05779
H          0.77234       -4.43252       -2.89625
H          0.92660        3.68394       -4.20030
H         -0.65110       -3.31995       -4.56334
C         -3.89575       -3.27237       -1.64724
C         -2.87861       -3.38665       -0.70686
C         -2.16774       -2.23994       -0.37897
C         -2.47802       -1.03577       -0.96046
C         -3.49012       -0.93744       -1.88349
C         -4.22833       -2.05948       -2.24073
H         -4.45100       -4.15000       -1.91569
H         -1.37277       -2.28048        0.34575
H         -3.71853        0.02574       -2.30874
C         -4.39382        2.80578        2.33002
C         -4.91964        1.75381        1.58889
C         -4.06403        1.06927        0.73632
C         -2.74101        1.42099        0.63742
C         -2.23801        2.45962        1.38090
C         -3.05440        3.16930        2.25129
H         -5.04072        3.34908        2.99121
H         -4.43000        0.24237        0.15350
H         -1.19229        2.70387        1.29894
C          4.18082       -3.01379        2.31461
C          4.79386       -2.01344        1.57039
C          3.99189       -1.23005        0.75059
C          2.64097       -1.45873        0.66813
C          2.05424       -2.46049        1.40121
C          2.81274       -3.25165        2.25352
H          4.78990       -3.60969        2.96791
H          4.41397       -0.42040        0.18320
H          0.98970       -2.60809        1.33107
C          4.02702        3.23817       -1.59017
C          2.97803        3.40945       -0.69584
C          2.24765        2.28604       -0.32977
C          2.54968        1.05893       -0.86469
C          3.57659        0.90839       -1.76393
C          4.34498        2.00351       -2.14200
H          4.62670        4.09064       -1.85073
H          1.44182        2.35588        0.38000
H          3.77625       -0.07349       -2.15857
Pd        -0.02875        0.04615        1.25540
C         -2.41901       -4.52166        1.49133
C         -2.52010       -4.71999       -0.03462
C         -1.17059       -5.20634       -0.58563
C         -3.58446       -5.80069       -0.30730
H         -2.20533       -5.46489        1.99376
H         -1.62652       -3.82312        1.75430
H         -3.35440       -4.13064        1.89092
H         -1.23416       -5.37583       -1.66016
H         -0.39135       -4.46624       -0.41053
H         -0.86605       -6.14009       -0.11331
H         -3.34361       -6.72219        0.22267
H         -4.56855       -5.47236        0.02691
H         -3.64116       -6.04106       -1.36863
C         -4.87197       -1.44930       -4.59027
C         -5.40058       -1.91795       -3.22411
C         -6.39974       -0.88259       -2.67485
C         -6.14616       -3.25224       -3.42177
H         -4.17164       -2.17659       -4.99958
H         -5.68717       -1.33015       -5.30379
H         -4.35921       -0.49184       -4.50737
H         -6.75684       -1.17853       -1.68856
H         -5.94021        0.10094       -2.58668
H         -7.26390       -0.78674       -3.33198
H         -5.48669       -4.01311       -3.83883
H         -6.54830       -3.62026       -2.47798
H         -6.98198       -3.12927       -4.11048
C         -7.13716        2.08059        2.79812
C         -6.39323        1.33108        1.67595
C         -6.47759       -0.18052        1.96685
C         -7.08183        1.63989        0.33539
H         -8.17043        1.74123        2.87036
H         -6.66316        1.90767        3.76418
H         -7.15807        3.15364        2.60922
H         -7.51393       -0.49861        2.07886
H         -6.03791       -0.76851        1.16227
H         -5.94772       -0.42440        2.88738
H         -8.12935        1.33965        0.35445
H         -7.03865        2.70665        0.11648
H         -6.59553        1.11249       -0.48363
C         -3.45124        4.84138        4.13067
C         -2.45294        4.30999        3.08409
C         -2.06338        5.46311        2.14339
C         -1.20356        3.79686        3.82811
H         -3.77569        4.04492        4.80018
H         -2.99385        5.62100        4.73976
H         -4.33072        5.27327        3.65372
H         -1.60675        6.28347        2.69679
H         -1.35356        5.12904        1.38865
H         -2.94032        5.85032        1.62492
H         -0.78080        4.57452        4.46378
H         -1.45529        2.94409        4.45816
H         -0.42598        3.47904        3.13550
C          6.78680       -0.66166        0.74774
C          6.30547       -1.77694        1.69723
C          7.05845       -3.07280        1.34346
C          6.63115       -1.36283        3.14354
H          6.56881       -0.91160       -0.29043
H          6.30837        0.28886        0.98325
H          7.86367       -0.51743        0.83396
H          6.79848       -3.88239        2.02427
H          6.81463       -3.39486        0.33120
H          8.13676       -2.92478        1.39999
H          6.35242       -2.14360        3.85029
H          7.69663       -1.16764        3.26363
H          6.08840       -0.45753        3.41492
C          1.42911       -5.34120        2.20424
C          2.11176       -4.30892        3.11796
C          1.05409       -3.61566        3.99895
C          3.10433       -5.04736        4.03592
H          0.68119       -4.86708        1.57227
H          2.15845       -5.82509        1.55490
H          0.93028       -6.11352        2.78947
H          0.54722       -4.33535        4.64129
H          1.51797       -2.86153        4.63421
H          0.29687       -3.11784        3.39471
H          2.58819       -5.78855        4.64603
H          3.86283       -5.57040        3.45381
H          3.60328       -4.35345        4.71216
C          3.86247        5.23674        0.76875
C          2.68202        4.79858       -0.11555
C          1.40099        4.78887        0.73986
C          2.48848        5.80687       -1.26389
H          3.67887        6.21724        1.20771
H          4.01868        4.52640        1.58046
H          4.78553        5.29433        0.19278
H          1.50926        4.13204        1.60250
H          1.17658        5.78775        1.11366
H          0.54738        4.45228        0.15246
H          2.23425        6.79362       -0.87725
H          3.39284        5.90866       -1.86223
H          1.68434        5.48655       -1.92525
C          5.44228        2.89324       -4.22838
C          5.55377        1.87199       -3.07979
C          5.64400        0.46062       -3.69258
C          6.83836        2.14232       -2.27588
H          5.44052        3.91621       -3.85472
H          6.28149        2.79563       -4.91692
H          4.52505        2.74280       -4.79589
H          6.48556        0.39127       -4.38169
H          5.78999       -0.29514       -2.92117
H          4.73922        0.21616       -4.24863
H          7.72193        2.04675       -2.90673
H          6.83393        3.14702       -1.85433
H          6.93341        1.43564       -1.45211
H         -1.99658       -1.43638       -5.17550
H          1.80197        0.08048       -4.35365
H         -0.67121       -0.34270       -5.55831
H         -1.85367        0.10121       -4.32525
H          2.53615        1.67125       -4.49765
H          1.19358        1.22784       -5.55064
