115
-277.94471973
P         -1.75418        0.39264        0.13526
P          1.85476       -0.23098        0.16911
C         -2.21613        2.10737       -0.14946
C         -3.50575        2.48779        0.15645
H         -4.24210        1.73912        0.40495
C         -3.80565        3.82915        0.28433
H         -4.77044        4.13978        0.65151
C         -2.81938        4.78468        0.09328
C         -1.56782        4.39056       -0.35089
H         -0.80959        5.14606       -0.48765
C         -1.26327        3.05013       -0.46963
H         -0.27047        2.74651       -0.75699
C         -3.07604       -0.64314       -0.54036
C         -3.28801       -1.89277       -0.00444
H         -2.68354       -2.23567        0.81780
C         -4.28483       -2.70097       -0.50872
H         -4.45940       -3.68456       -0.10165
C         -5.07745       -2.26407       -1.55245
C         -4.85788       -1.01124       -2.08864
H         -5.47161       -0.68875       -2.91502
C         -3.86326       -0.20128       -1.57928
H         -3.68821        0.77303       -2.00650
C         -1.52632        0.02225        1.90764
C         -0.86208       -1.17881        2.07289
H         -0.49096       -1.69270        1.20277
C         -0.49741       -1.64191        3.33528
C         -1.00386       -0.96931        4.44077
H         -0.76793       -1.32647        5.42922
C         -1.65953        0.23573        4.28604
H         -1.92680        0.80601        5.15961
C         -1.82736        0.81311        3.02710
C          1.60864        0.34170        1.88345
C          0.94697        1.55564        1.90567
H          0.58776        1.97085        0.97919
C          0.57823        2.16067        3.10564
C          1.08024        1.61872        4.28278
H          0.84091        2.08702        5.22283
C          1.73527        0.40357        4.27041
H          1.99903       -0.06250        5.20473
C          1.90648       -0.31492        3.08705
C         -1.96782        2.32024        2.97783
H         -2.67989        2.64408        3.74542
H         -2.44173        2.60895        2.04415
C         -0.60571        3.08822        3.14402
H         -0.48905        3.85703        2.37250
H         -0.59419        3.64460        4.08794
C          0.68675       -2.55842        3.47985
H          0.56307       -3.41511        2.80868
H          0.68133       -2.99482        4.48489
C          2.04774       -1.81768        3.21079
H          2.76775       -2.05043        4.00340
H          2.51113       -2.21174        2.31059
C          2.27018       -1.97833        0.07279
C          3.55473       -2.35956        0.39971
C          1.28731       -2.92319       -0.12751
C          3.82326       -3.68800        0.66620
C          1.55762       -4.24872        0.13867
C          2.80819       -4.62828        0.60130
C          3.21784        0.69272       -0.58000
C          3.98691        0.14411       -1.58079
C          3.49679        1.95794       -0.11666
C          5.03301        0.86266       -2.12316
H          3.76628       -0.84718       -1.94293
C          4.54262        2.67604       -0.65641
H          2.90993        2.37959        0.68166
C          5.31440        2.13457       -1.66622
H          5.65127        0.44595       -2.90273
H          4.78297        3.66177       -0.29140
Pd         0.05665        0.02784       -1.32414
Cl        -1.45399        0.52684       -2.91059
Cl         1.56019       -0.57854       -2.87764
H          0.77295       -4.98668        0.09501
H          0.29990       -2.62639       -0.43989
H          4.78650       -3.99426        1.04375
H          4.31555       -1.60963        0.55105
C         -4.42364        6.66510        0.65940
C         -2.95280        6.15848        0.70065
C         -2.39710        6.03262        2.15502
F         -4.86135        6.54202       -0.60240
F         -5.18061        5.91873        1.47544
F         -4.45534        7.95268        1.03680
F         -2.19313        7.03387        0.03785
F         -3.00877        5.01063        2.77017
F         -1.08958        5.75863        2.05998
F         -2.59119        7.17946        2.81982
C         -5.45030       -4.26659       -2.98527
C         -6.14002       -3.15684       -2.14130
C         -7.03482       -3.74176       -1.00891
F         -6.38229       -5.08826       -3.49142
F         -4.77975       -3.65922       -3.97606
F         -4.59289       -4.94393       -2.20764
F         -6.92938       -2.45402       -2.95833
F         -7.46910       -2.71322       -0.26519
F         -8.07538       -4.38791       -1.55708
F         -6.31008       -4.57572       -0.25015
C          6.13466        4.36589       -2.49275
C          6.50539        2.87907       -2.21366
C          7.68014        2.74016       -1.20343
F          5.02344        4.37186       -3.24419
F          5.90064        4.99620       -1.33330
F          7.14310        4.95531       -3.15344
F          6.89466        2.33456       -3.36974
F          7.97354        1.43458       -1.10753
F          8.74254        3.42350       -1.65479
F          7.29037        3.20452       -0.00711
C          2.39520       -5.64201        2.79197
C          2.97426       -5.91590        1.36804
C          2.27693       -7.10577        0.64791
F          2.56504       -6.72262        3.56555
F          3.05528       -4.59091        3.29906
F          1.09864       -5.32690        2.68514
F          4.26926       -6.21393        1.49889
F          0.95412       -6.89568        0.59964
F          2.77157       -7.17164       -0.59738
F          2.54742       -8.23945        1.31348
