111
-148.55840624
P         -2.23975        2.24951        1.30968
P          0.07685        0.25113        0.47108
C         -1.18476        1.51506        2.58151
C         -0.19984        0.62516        2.21454
C         -2.39691        4.07847        1.52593
C         -1.62373        4.81156        0.45142
C         -1.38521        1.81472        3.91355
H         -2.15851        2.51271        4.19105
C         -0.59931        1.21091        4.88000
H         -0.75453        1.44294        5.92099
C          0.37668        0.30465        4.51200
H          0.98347       -0.17175        5.26437
C          0.57422        0.00796        3.17524
H          1.32531       -0.70514        2.87272
Pd        -1.51555        1.44919       -0.72801
Cl        -3.23084        2.56502       -1.65005
Cl        -0.77548        0.52444       -2.63266
C         -3.91988        4.30462        1.48451
C         -4.01532        1.74574        1.47977
H         -0.56098        4.55901        0.48452
H         -1.99292        4.54337       -0.54032
H         -1.71969        5.89467        0.55846
H         -4.21032        4.55441        0.45472
H         -4.19419        5.18199        2.08975
H         -4.35010        1.48119        0.46791
C         -4.70128        3.04264        1.94782
C         -4.18289        0.57203        2.42224
H         -1.99883        4.31007        2.52243
H         -4.76495        3.03359        3.04457
H         -5.74262        3.07362        1.59295
H         -3.59697       -0.28926        2.09509
H         -3.84621        0.82964        3.42755
H         -5.22842        0.26365        2.49412
C         -1.10904       -4.07617       -0.30494
C         -2.10183       -3.06508       -0.23988
C         -1.70018       -1.76932        0.03711
C         -0.37273       -1.44988        0.14991
C          0.59726       -2.40344       -0.01467
C          0.26432       -3.72228       -0.27541
O         -1.48873       -5.44338       -0.36789
C         -3.59556       -3.34680       -0.46723
H         -2.42663       -0.98548        0.16052
H          1.62643       -2.10026        0.06692
C          1.38627       -4.74910       -0.49636
C          4.41450        0.85666       -0.80887
C          4.01998        1.22967        0.50353
C          2.69780        1.03945        0.86979
C          1.76954        0.58072       -0.02972
C          2.12231        0.35876       -1.33543
C          3.42554        0.52290       -1.77100
O          5.79040        0.73679       -1.13290
C          4.97702        1.83646        1.54334
H          2.38220        1.24185        1.87784
H          1.35308        0.06011       -2.02546
C          3.70765        0.35237       -3.27337
C         -4.29357       -2.10967       -1.07960
C         -3.79491       -4.50806       -1.45798
C         -4.26505       -3.67361        0.87586
C          0.95012       -5.83776       -1.49368
C          2.64112       -4.07048       -1.09167
C          1.76524       -5.38485        0.84956
C         -1.68213       -6.05089        0.90310
H         -4.34954       -1.28452       -0.37143
H         -3.76222       -1.76412       -1.96607
H         -5.31564       -2.34733       -1.37329
H         -3.28716       -4.29965       -2.39914
H         -3.39617       -5.43938       -1.06378
H         -4.85207       -4.66555       -1.67015
H         -3.82021       -4.55336        1.33467
H         -4.15420       -2.84428        1.57389
H         -5.32992       -3.86418        0.74476
H          1.76636       -6.52931       -1.70096
H          0.11693       -6.41923       -1.10670
H          0.63628       -5.39054       -2.43629
H          3.39103       -4.81319       -1.36298
H          2.38610       -3.50989       -1.99008
H          3.10868       -3.38940       -0.38205
H          2.10270       -4.62424        1.55329
H          0.91594       -5.89570        1.29677
H          2.56814       -6.11120        0.72622
H         -1.01278       -6.90501        1.00461
H         -1.48253       -5.33519        1.70160
H         -2.70751       -6.41096        0.98483
C          6.29990       -0.56247       -0.88230
C          4.30637        3.05984        2.20668
C          5.29096        0.78765        2.62284
C          6.28925        2.33157        0.91048
C          3.59612       -1.13458       -3.64809
C          2.66701        1.15707       -4.08347
C          5.09601        0.88019       -3.67396
H          4.99375        3.55554        2.89172
H          4.00084        3.78570        1.45360
H          3.42502        2.77782        2.78025
H          5.95038        1.20006        3.38609
H          4.37919        0.44940        3.11429
H          5.77986       -0.08458        2.19311
H          6.08512        3.02518        0.09555
H          6.91164        2.84253        1.64472
H          6.86855        1.50438        0.50693
H          4.31242       -1.73531       -3.09044
H          2.59898       -1.51565       -3.43061
H          3.78660       -1.28397       -4.71050
H          1.65839        0.77223       -3.94371
H          2.67173        2.20411       -3.78222
H          2.88587        1.11264       -5.14995
H          5.88822        0.29146       -3.21766
H          5.22119        1.91386       -3.35350
H          5.23547        0.83918       -4.75397
H          5.74114       -1.30049       -1.45601
H          7.35011       -0.59908       -1.17252
H          6.21087       -0.80068        0.17638
