72
-108.39910291
Cl        -1.66319        1.00169        2.64750
Cl         1.05873       -0.63112        2.75060
P          1.08473       -1.16302       -0.31548
P         -2.24270        0.13517       -0.35652
C         -3.14161       -1.51984       -0.09923
C         -3.43358       -1.70299        1.39179
C         -4.44050       -1.55253       -0.89736
C         -3.41221        1.61428       -0.09717
C         -4.28282        1.82012       -1.34262
C         -1.42944        0.51597       -2.02383
C         -1.61485       -0.55400       -3.07908
C          1.17042        0.21472       -1.50151
C          0.01913        0.98066       -1.98287
C          0.53668        2.02706       -2.86654
C          1.98026        1.90710       -2.91340
C          2.37035        0.77100       -2.10140
C         -2.23538       -2.65721       -0.54365
H         -4.11962       -0.95183        1.77385
H         -3.89092       -2.67667        1.57486
H         -5.16136       -0.82928       -0.52070
H         -4.90804       -2.53589       -0.82612
C         -4.31913        1.43223        1.11614
H         -3.71052        2.18658       -2.19337
H         -5.05705        2.56351       -1.14567
H         -1.99731        1.39388       -2.34882
H         -0.97392       -1.40720       -2.87360
H         -1.32856       -0.18536       -4.06638
H         -2.64632       -0.89810       -3.14344
H         -0.06956        2.72232       -3.45038
H          2.65241        2.51844       -3.51982
Pd        -0.46374       -0.16288        1.15591
H          3.38133        0.37301       -1.99861
C         -2.52188        2.83285        0.10981
H         -4.78114        0.90179       -1.64586
H         -5.06474        0.65737        0.94837
H         -3.74827        1.18374        2.00848
H         -4.86301        2.35429        1.32640
H         -1.77946        2.92184       -0.68419
H         -3.11353        3.75030        0.12078
H         -2.00177        2.77032        1.06408
H         -2.52093       -1.65522        1.98567
H         -4.26828       -1.34773       -1.95264
H         -1.29673       -2.63997        0.00843
H         -2.70557       -3.62416       -0.35709
H         -2.01562       -2.60675       -1.60705
C          2.65016       -1.44394        0.56356
C          3.75139       -0.62351        0.59809
C          4.70317       -1.24482        1.40501
C          4.14488       -2.42473        1.82957
O          2.88704       -2.56001        1.31713
H          3.85672        0.32775        0.10723
H          5.68326       -0.86992        1.65101
H          4.61731       -3.15230        2.47812
C          0.74972       -2.73283       -1.13731
C          1.11916       -3.93269       -0.58309
C          0.71657       -4.93598       -1.46538
C          0.11735       -4.30339       -2.52686
O          0.12867       -2.95057       -2.33670
H          1.64466       -4.05413        0.35063
H          0.85547       -5.99743       -1.34085
H         -0.30765       -4.79128       -3.39527
Fe         1.34794        2.14134       -0.98168
C          0.81706        3.89981       -0.00425
C          2.15219        3.95494       -0.57234
C          2.95522        2.90775        0.03738
C          2.10514        2.17555        0.95639
C          0.78829        2.77262        0.90715
H         -0.00814        4.58032       -0.22396
H          2.51101        4.69983       -1.28677
H          4.01678        2.72593       -0.14536
H          2.38665        1.33502        1.59261
H         -0.04587        2.46600        1.53940
