171
-217.84693004
P         -1.64290        0.38156       -0.30153
P          1.62691       -0.42132       -0.26958
C         -0.89083        1.31734       -1.63576
C          0.87259       -1.40298       -1.57056
C         -0.09912        0.67329       -2.57980
C          0.53204        1.44577       -3.57352
C          0.33034        2.81596       -3.59646
C         -0.47250        3.43264       -2.66007
C         -1.07879        2.67714       -1.67612
C          1.06189       -2.76310       -1.54676
C          0.45692       -3.56510       -2.49415
C         -0.35127       -2.99459       -3.45476
C         -0.55713       -1.62550       -3.49461
C          0.07878       -0.80499       -2.54335
Cl         1.61957        0.34597        2.85297
Cl        -1.48941       -0.18505        3.00851
C         -1.44218       -1.05047       -4.54460
C          1.39441        0.81345       -4.60918
H         -0.62762        4.49854       -2.69493
H         -1.70600        3.15058       -0.93860
H          1.68573       -3.20010       -0.78381
H          0.61352       -4.63127       -2.47875
H          0.81232        3.40158       -4.36110
H         -0.83723       -3.61638       -4.18770
C         -3.96985       -3.23317       -1.69446
C         -2.96086       -3.41160       -0.75661
C         -2.24963       -2.29064       -0.34637
C         -2.53073       -1.05909       -0.88293
C         -3.51919       -0.90128       -1.82347
C         -4.26751       -1.99390       -2.24639
H         -4.55594       -4.08386       -1.98945
H         -1.47609       -2.36482        0.39837
H         -3.70840        0.08548       -2.21116
C         -4.40354        2.89530        2.28095
C         -3.05482        3.22654        2.22859
C         -2.23318        2.47267        1.40102
C         -2.73932        1.41544        0.68608
C         -4.07136        1.09241        0.76452
C         -4.93596        1.83597        1.55718
H         -5.06121        3.46533        2.90963
H         -1.18251        2.69716        1.32984
H         -4.42988        0.24288        0.21171
C          4.47348       -2.85708        2.28805
C          3.11441       -3.13535        2.35844
C          2.25748       -2.40201        1.54649
C          2.75066       -1.42557        0.71609
C          4.09706       -1.16085        0.66590
C          4.99085       -1.87968        1.44853
H          5.14766       -3.40547        2.92000
H          1.19416       -2.56628        1.57715
H          4.44494       -0.37250        0.02323
C          3.86723        3.21724       -1.74674
C          4.16178        1.98173       -2.30924
C          3.44082        0.87939       -1.86427
C          2.48294        1.02363       -0.89032
C          2.20675        2.25148       -0.34303
C          2.88830        3.38202       -0.77540
H          4.43263        4.07547       -2.05972
H          3.62785       -0.10370       -2.26187
H          1.46355        2.31569        0.43246
Pd        -0.01391        0.04708        1.32740
C         -3.90939       -5.24079        0.66339
C         -2.69494       -4.80653       -0.17588
C         -1.44548       -4.81188        0.72419
C         -2.46911       -5.81057       -1.32230
H         -4.08864       -4.53460        1.47396
H         -4.81191       -5.28683        0.05474
H         -3.74933       -6.22568        1.10174
H         -0.56703       -4.47935        0.17180
H         -1.58102       -4.15923        1.58633
H         -1.24314       -5.81498        1.09940
H         -2.23190       -6.80020       -0.93222
H         -3.35410       -5.90611       -1.94985
H         -1.64288       -5.49130       -1.95620
C         -5.26389       -2.85602       -4.39386
C         -5.43601       -1.85711       -3.23330
C         -5.51484       -0.43545       -3.82309
C         -6.75183       -2.15619       -2.49232
H         -4.32638       -2.68421       -4.92036
H         -5.26374       -3.88535       -4.03803
H         -6.07537       -2.75663       -5.11465
H         -4.59037       -0.17251       -4.33666
H         -6.32793       -0.36070       -4.54503
H         -5.69967        0.30412       -3.04428
H         -6.89096       -1.46740       -1.66000
H         -7.60771       -2.05671       -3.15966
H         -6.75552       -3.16902       -2.09071
C         -2.08570        5.52609        2.07377
C         -2.45634        4.38602        3.03723
C         -1.19674        3.89917        3.78205
C         -3.45218        4.92445        4.08295
H         -1.38316        5.18386        1.31592
H         -2.97126        5.89913        1.55956
H         -1.62801        6.35826        2.60834
H         -0.78307        4.68997        4.40741
H         -1.43376        3.05010        4.42275
H         -0.41655        3.58573        3.09059
H         -4.33362        5.35232        3.60608
H         -3.77390        4.13227        4.75883
H         -2.99392        5.70916        4.68480
C         -6.73597        1.07112        3.12096
C         -6.42863        1.49666        1.67420
C         -6.82354        0.34536        0.72811
C         -7.26768        2.73425        1.30486
H         -7.78682        0.80586        3.23555
H         -6.13570        0.20608        3.40236
H         -6.51455        1.87373        3.82359
H         -6.28663       -0.57021        0.97574
H         -7.88956        0.13091        0.80235
H         -6.60912        0.60354       -0.30875
H         -7.07408        3.56388        1.98356
H         -7.03627        3.06750        0.29331
H         -8.33331        2.51017        1.35068
C          3.28267       -5.53529        3.07852
C          2.60161       -4.18250        3.35664
C          1.07777       -4.37396        3.24384
C          2.92953       -3.71512        4.78625
H          3.08346       -5.86323        2.05838
H          4.36264       -5.47067        3.20477
H          2.91438       -6.30378        3.75797
H          0.80603       -4.70738        2.24355
H          0.72721       -5.12612        3.95037
H          0.54668       -3.44687        3.45923
H          2.46852       -2.74830        4.98792
H          2.56067       -4.42685        5.52455
H          4.00408       -3.60936        4.93081
C          7.25729       -2.88897        1.06985
C          6.49981       -1.59838        1.43288
C          6.93658       -1.11182        2.82645
C          6.86364       -0.51438        0.39901
H          7.07880       -3.67419        1.80342
H          6.93814       -3.26107        0.09644
H          8.33181       -2.71153        1.02767
H          6.39246       -0.20982        3.10598
H          6.74357       -1.86734        3.58719
H          8.00213       -0.88359        2.84442
H          7.93881       -0.33621        0.38634
H          6.56681       -0.81736       -0.60491
H          6.37648        0.43185        0.63400
C          5.08294        2.86141       -4.48219
C          5.30154        1.86045       -3.33124
C          5.38018        0.44146       -3.92761
C          6.63559        2.17187       -2.62889
H          4.12611        2.68884       -4.97242
H          5.09363        3.88989       -4.12403
H          5.86663        2.76606       -5.23360
H          5.59519       -0.29822       -3.15677
H          4.44552        0.16851       -4.41640
H          6.17383        0.37832       -4.67195
H          6.63953        3.18276       -2.22244
H          6.80789        1.48070       -1.80470
H          7.47197        2.08570       -3.32231
C          2.34489        5.77539       -1.31590
C          2.62151        4.77108       -0.18108
C          3.85488        5.21999        0.62168
C          1.39962        4.75389        0.75645
H          1.50172        5.44733       -1.92244
H          2.10834        6.76079       -0.91484
H          3.20708        5.88383       -1.97243
H          4.06934        4.51365        1.42351
H          4.73719        5.28105       -0.01468
H          3.69435        6.20095        1.06856
H          1.18717        5.75316        1.13611
H          0.51469        4.40097        0.22796
H          1.57224        4.10624        1.61554
H         -0.94054       -1.03660       -5.51317
H          0.84687        0.67871       -5.54292
H         -1.73987       -0.02945       -4.30231
H         -2.35230       -1.64116       -4.64758
H          1.75568       -0.16333       -4.28468
H          2.26574        1.43313       -4.82006
