111
-148.55705431
P         -2.14104        2.32828        1.31789
P          0.03242        0.16522        0.52536
C         -1.15797        1.53018        2.61006
C         -0.23524        0.56888        2.26219
C         -2.09437        4.16900        1.47843
C         -1.26694        4.77950        0.36830
C         -1.34093        1.86481        3.93627
H         -2.06125        2.62266        4.19885
C         -0.60171        1.22349        4.91536
H         -0.74370        1.48249        5.95187
C          0.31297        0.24840        4.56583
H          0.88497       -0.25447        5.32814
C          0.49564       -0.08127        3.23463
H          1.20361       -0.84222        2.94498
Pd        -1.54169        1.36431       -0.69167
Cl        -3.11754        2.65479       -1.63350
Cl        -0.93777        0.25281       -2.54580
C         -3.58397        4.56053        1.45767
C         -3.96025        2.02994        1.50661
H         -0.23798        4.41186        0.39186
H         -1.68308        4.52391       -0.60803
H         -1.24084        5.86931        0.44213
H         -3.86506        4.81947        0.42758
H         -3.74885        5.47498        2.04747
H         -4.33154        1.79500        0.50013
C         -4.49017        3.40182        1.96245
C         -4.25071        0.89035        2.46027
H         -1.65234        4.38346        2.46024
H         -4.53080        3.41920        3.06020
H         -5.52910        3.54108        1.62694
H         -5.32406        0.70725        2.54856
H         -3.77473       -0.03514        2.12926
H         -3.87172        1.11188        3.45903
C         -1.07337       -4.17659       -0.28571
C         -2.08991       -3.19368       -0.14881
C         -1.70984       -1.89520        0.14794
C         -0.38715       -1.54284        0.20769
C          0.59817       -2.46087       -0.04529
C          0.28966       -3.78010       -0.33265
O         -1.41526       -5.55327       -0.30241
C         -3.58788       -3.47265       -0.35993
H         -2.45313       -1.13632        0.32476
H          1.62326       -2.13308       -0.01738
C          1.44490       -4.72460       -0.70608
C          4.31408        0.92319       -0.85166
C          3.95405        1.22023        0.48999
C          2.64973        0.97786        0.88832
C          1.70451        0.54237       -0.00443
C          2.01948        0.39044       -1.32931
C          3.30309        0.60865       -1.79730
O          5.68099        0.86027       -1.22588
C          4.92838        1.80388        1.52701
H          2.36115        1.12067        1.91464
H          1.23502        0.10113       -2.00626
C          3.53992        0.51315       -3.31398
C         -4.19302       -2.36495       -1.25247
C         -3.83450       -4.81178       -1.07606
C         -4.30859       -3.47384        0.99774
C          0.94889       -6.01572       -1.37998
C          2.38040       -4.02102       -1.71471
C          2.24393       -5.07839        0.55870
C         -1.48110       -6.11973        0.99542
H         -4.17917       -1.39388       -0.76041
H         -3.63682       -2.27656       -2.18529
H         -5.23077       -2.58751       -1.49901
H         -3.27729       -4.85510       -2.01125
H         -3.51914       -5.65133       -0.46094
H         -4.89168       -4.94764       -1.30281
H         -3.92560       -4.25920        1.64640
H         -4.17295       -2.52274        1.51131
H         -5.37848       -3.63653        0.86995
H          0.36145       -6.61887       -0.69172
H          0.32134       -5.78336       -2.23967
H          1.78400       -6.62618       -1.72273
H          3.16214       -4.69830       -2.05769
H          1.81983       -3.68597       -2.58682
H          2.87331       -3.15501       -1.27608
H          2.63905       -4.18049        1.03300
H          1.61932       -5.59153        1.28745
H          3.08438       -5.72932        0.31914
H         -0.50950       -6.05212        1.48212
H         -2.21396       -5.58711        1.59915
H         -1.77206       -7.16737        0.91591
C          6.23660       -0.43284       -1.05382
C          4.24622        2.97305        2.27163
C          5.30816        0.71377        2.54248
C          6.20378        2.36832        0.87714
C          3.46494       -0.95915       -3.75054
C          2.44633        1.31529       -4.05416
C          4.89573        1.10586       -3.73460
H          4.94229        3.45566        2.95724
H          3.89425        3.72486        1.56575
H          3.39353        2.63722        2.85940
H          5.98075        1.10826        3.30370
H          4.42333        0.32473        3.04548
H          5.80706       -0.12143        2.05465
H          5.95245        3.09409        0.10449
H          6.83584        2.86171        1.61513
H          6.79247        1.57952        0.41467
H          4.22358       -1.55741       -3.24920
H          2.49139       -1.38538       -3.51112
H          3.61699       -1.05515       -4.82523
H          1.45677        0.88779       -3.90233
H          2.42398        2.34718       -3.70517
H          2.63257        1.32704       -5.12767
H          5.72190        0.52611       -3.32994
H          4.99670        2.12856       -3.37300
H          5.00062        1.11618       -4.81924
H          5.68073       -1.16034       -1.64345
H          7.27698       -0.42343       -1.37946
H          6.19058       -0.72268       -0.00536
