171
-217.84446064
P         -1.63786        0.36775       -0.38377
P          1.59930       -0.43040       -0.26929
C         -0.87216        1.29660       -1.71426
C          0.90463       -1.41449       -1.60162
C         -0.06396        0.64875       -2.64140
C          0.57790        1.41702       -3.63212
C          0.36546        2.78508       -3.67197
C         -0.45750        3.40442       -2.75536
C         -1.07167        2.65413       -1.77212
C          1.11766       -2.77148       -1.57738
C          0.54577       -3.58276       -2.53703
C         -0.25807       -3.02519       -3.50828
C         -0.48903       -1.65999       -3.54787
C          0.12164       -0.82825       -2.59009
Cl         1.47775        0.23136        2.89728
Cl        -1.72473       -0.42335        2.79430
C         -1.36771       -1.09861       -4.60947
C          1.46777        0.78645       -4.64546
H         -0.62026        4.46865       -2.80492
H         -1.71451        3.12965       -1.04937
H          1.73461       -3.19985       -0.80425
H          0.72178       -4.64596       -2.52098
H          0.85488        3.36693       -4.43478
H         -0.71928       -3.65430       -4.25087
C         -4.04762       -3.19213       -1.78272
C         -2.99964       -3.39792       -0.89389
C         -2.26782       -2.29068       -0.48377
C         -2.56682       -1.04344       -0.97171
C         -3.59566       -0.85762       -1.86219
C         -4.37245       -1.93326       -2.27505
H         -4.63163       -4.04085       -2.08480
H         -1.46069       -2.38940        0.22144
H         -3.80277        0.13666       -2.22210
C         -4.24606        2.92637        2.31353
C         -4.82787        1.86745        1.62637
C         -4.01997        1.12367        0.77691
C         -2.68832        1.42368        0.63272
C         -2.12910        2.46678        1.32856
C         -2.89585        3.23432        2.19547
H         -4.85799        3.52228        2.96244
H         -4.43032        0.29232        0.23152
H         -1.07918        2.66940        1.20579
C          4.49321       -2.83349        2.26982
C          3.14507       -3.17019        2.30133
C          2.27161       -2.44124        1.50338
C          2.73788       -1.41854        0.71499
C          4.07262       -1.09926        0.69980
C          4.98184       -1.80246        1.47659
H          5.17219       -3.38377        2.89357
H          1.21548       -2.64880        1.50963
H          4.40936       -0.28076        0.08824
C          3.86876        3.27546       -1.51088
C          2.89751        3.38314       -0.52265
C          2.18601        2.23958       -0.18572
C          2.43886        1.05023       -0.82164
C          3.40141        0.95825       -1.79701
C          4.14353        2.07680       -2.15830
H          4.44727        4.14087       -1.77367
H          1.44744        2.26790        0.59729
H          3.58218        0.00006       -2.25398
Pd        -0.08156       -0.06545        1.30719
C         -2.47207       -5.76406       -1.55053
C         -2.70855       -4.80904       -0.36565
C         -3.91201       -5.29485        0.46173
C         -1.45642       -4.82917        0.53184
H         -1.64886       -5.41137       -2.17049
H         -2.22519       -6.76609       -1.20017
H         -3.35599       -5.84203       -2.18213
H         -3.73175       -6.29096        0.86553
H         -4.10126       -4.62047        1.29675
H         -4.81610       -5.33785       -0.14468
H         -1.24575       -5.84043        0.87945
H         -0.58088       -4.47622       -0.01203
H         -1.59430       -4.20079        1.41152
C         -6.51540       -0.66449       -2.56403
C         -5.56912       -1.69441       -3.20889
C         -6.36381       -2.99035       -3.46140
C         -5.07050       -1.15658       -4.56137
H         -6.02283        0.29895       -2.44052
H         -7.40037       -0.50708       -3.18034
H         -6.84381       -1.00526       -1.58225
H         -5.74399       -3.74312       -3.94814
H         -6.74437       -3.40470       -2.52792
H         -7.21839       -2.79928       -4.11041
H         -4.43212       -1.88845       -5.05460
H         -5.90656       -0.94123       -5.22659
H         -4.49915       -0.23763       -4.43495
C         -7.03692        1.86296        0.45359
C         -6.31470        1.50884        1.76438
C         -6.98131        2.27794        2.92169
C         -6.45878       -0.00047        2.04520
H         -8.09536        1.60891        0.50797
H         -6.95422        2.92914        0.24340
H         -6.60358        1.32366       -0.38702
H         -8.02113        1.97328        3.03990
H         -6.46935        2.08473        3.86428
H         -6.97559        3.35199        2.73778
H         -7.50288       -0.26899        2.20488
H         -6.08924       -0.60049        1.21478
H         -5.89775       -0.28032        2.93658
C         -2.08587        5.58940        1.99876
C         -2.25172        4.40037        2.95939
C         -0.87296        3.97476        3.50518
C         -3.11918        4.83941        4.15585
H         -1.59426        6.42739        2.49258
H         -1.48962        5.30886        1.13194
H         -3.05548        5.93031        1.63622
H         -0.96133        3.07762        4.11759
H         -0.17044        3.76405        2.70140
H         -0.43687        4.76201        4.11976
H         -2.61229        5.60773        4.73961
H         -4.06943        5.25811        3.82609
H         -3.32303        3.99759        4.81739
C          2.92361       -3.86269        4.69614
C          2.65597       -4.28231        3.23960
C          3.40694       -5.58932        2.92472
C          1.14581       -4.53951        3.07487
H          2.57061       -4.62248        5.39314
H          3.98776       -3.71271        4.87471
H          2.41145       -2.92836        4.92553
H          3.25161       -5.88106        1.88614
H          4.47878       -5.48172        3.08588
H          3.05610       -6.40272        3.55966
H          0.81434       -5.34111        3.73469
H          0.56545       -3.65035        3.32076
H          0.91359       -4.83523        2.05254
C          6.99465       -1.56039        0.00276
C          6.46313       -1.40150        1.43943
C          7.31499       -2.27707        2.37786
C          6.60029        0.06806        1.88122
H          6.45009       -0.92303       -0.69272
H          8.04940       -1.29228       -0.05551
H          6.88826       -2.59093       -0.33541
H          7.26022       -3.32724        2.09166
H          8.36272       -1.97906        2.33937
H          6.98296       -2.18181        3.41150
H          6.06005        0.73617        1.21131
H          6.19919        0.20652        2.88499
H          7.64515        0.37779        1.88834
C          1.15355        5.10781       -0.02929
C          2.61231        4.69254        0.22490
C          3.53412        5.83419       -0.24438
C          2.83697        4.47307        1.73318
H          0.90478        6.01776        0.51639
H          0.98703        5.29343       -1.08977
H          0.46441        4.32560        0.28382
H          3.39544        6.03940       -1.30573
H          3.31767        6.75345        0.29980
H          4.58187        5.58803       -0.07282
H          2.64133        5.38654        2.29443
H          2.18271        3.69532        2.12409
H          3.86535        4.16969        1.92813
C          5.07620        3.05501       -4.27975
C          5.29313        2.00508       -3.17366
C          5.38798        0.61407       -3.83094
C          6.61942        2.28917       -2.44437
H          5.07728        4.06615       -3.87490
H          5.86502        2.99846       -5.02969
H          4.12271        2.89828       -4.78231
H          5.59213       -0.15816       -3.08972
H          4.46440        0.35872       -4.34873
H          6.19520        0.58684       -4.56277
H          6.61895        3.28295       -1.99786
H          6.78290        1.56520       -1.64629
H          7.46343        2.23120       -3.13144
H         -0.81128       -0.93822       -5.53365
H          2.34966        1.40197       -4.82313
H         -1.80102       -0.14537       -4.30336
H         -2.18928       -1.78049       -4.83000
H          0.94995        0.66578       -5.59782
H          1.81112       -0.19622       -4.31932
