171
-217.84246699
P         -1.53237        0.35520       -0.30728
P          1.63133       -0.61695        0.21211
C         -0.64387        1.02696       -1.71460
C          0.81045       -1.70339       -0.97480
C          0.15727        0.18538       -2.47595
C          0.88235        0.72708       -3.55428
C          0.74917        2.07649       -3.84158
C         -0.06832        2.89084       -3.08406
C         -0.76541        2.36025       -2.01547
C          0.76189       -3.02774       -0.60879
C          0.13303       -3.95354       -1.41806
C         -0.45983       -3.53868       -2.59073
C         -0.44246       -2.20632       -2.96798
C          0.20736       -1.26355       -2.14828
Cl         1.03860        0.09556        3.40632
Cl        -2.06025       -0.53970        2.82786
C         -1.13205       -1.80488       -4.22482
C          1.76031       -0.13100       -4.39641
H         -0.16114        3.93739       -3.32395
H         -1.41104        2.98156       -1.41568
H          1.21693       -3.33624        0.32082
H          0.10381       -4.99190       -1.13101
H          1.29292        2.48891       -4.67446
H         -0.96175       -4.25271       -3.22186
C         -4.36051       -2.94409       -1.56752
C         -4.28370       -1.79919       -2.35120
C         -3.39115       -0.80731       -1.96093
C         -2.63805       -0.95748       -0.82171
C         -2.73332       -2.09173       -0.05646
C         -3.58538       -3.12273       -0.42864
H         -5.05972       -3.71274       -1.84018
H         -3.27439        0.09113       -2.54257
H         -2.15152       -2.15479        0.84590
C         -4.14930        3.56253        1.58097
C         -2.87677        3.36813        2.10308
C         -2.06566        2.41098        1.50656
C         -2.52515        1.66188        0.45016
C         -3.79106        1.86346       -0.04194
C         -4.62964        2.82254        0.50827
H         -4.78253        4.29976        2.03755
H         -1.07995        2.22287        1.89060
H         -4.14281        1.24921       -0.85149
C          5.26759       -2.89801        1.67922
C          4.94142       -2.92392        0.32933
C          3.81121       -2.22567       -0.07720
C          3.04913       -1.53572        0.83430
C          3.38948       -1.52271        2.16244
C          4.50745       -2.20882        2.61552
H          6.14090       -3.42905        2.01093
H          3.50891       -2.22192       -1.11061
H          2.76729       -0.97107        2.84195
C          3.41563        3.27358       -1.27719
C          3.88949        2.07101       -1.78512
C          3.29378        0.89840       -1.33725
C          2.27763        0.93821       -0.41403
C          1.83846        2.13636        0.09577
C          2.39752        3.33353       -0.33311
H          3.87287        4.18403       -1.61587
H          3.63125       -0.05874       -1.69335
H          1.07339        2.13656        0.85184
Pd        -0.22884       -0.21256        1.57069
C         -4.84445       -0.39457       -4.39930
C         -5.22860       -1.62202       -3.54935
C         -6.66100       -1.42406       -3.02204
C         -5.18202       -2.87008       -4.45249
H         -4.93619        0.52710       -3.82547
H         -3.82086       -0.47328       -4.76374
H         -5.49882       -0.30487       -5.26629
H         -7.36605       -1.29597       -3.84318
H         -6.98340       -2.28158       -2.43211
H         -6.71882       -0.54068       -2.38669
H         -4.16900       -3.06028       -4.80396
H         -5.52626       -3.75880       -3.92561
H         -5.82007       -2.73974       -5.32647
C         -5.12097       -4.50649        0.98469
C         -3.70426       -4.41411        0.39132
C         -2.68256       -4.44689        1.54576
C         -3.44052       -5.62579       -0.52221
H         -5.32696       -3.64679        1.62211
H         -5.87641       -4.52948        0.19999
H         -5.23460       -5.40839        1.58586
H         -2.85929       -3.63518        2.25105
H         -2.75329       -5.38315        2.09900
H         -1.66353       -4.36087        1.16886
H         -4.17488       -5.68702       -1.32430
H         -2.45313       -5.55594       -0.97760
H         -3.48671       -6.55700        0.04212
C         -2.43915        5.66763        3.00799
C         -2.43028        4.16427        3.33810
C         -1.01137        3.76762        3.78892
C         -3.39992        3.87994        4.50034
H         -3.43810        6.00774        2.73750
H         -2.10612        6.25662        3.86237
H         -1.77550        5.88241        2.17122
H         -0.95996        2.70860        4.04147
H         -0.28403        3.97223        3.00608
H         -0.71232        4.33262        4.67152
H         -3.42374        2.81411        4.72673
H         -3.09434        4.41033        5.40203
H         -4.41444        4.19331        4.25741
C         -6.80527        4.13910        0.63378
C         -6.05180        2.98084       -0.04741
C         -6.83070        1.67496        0.19672
C         -5.98262        3.26710       -1.55951
H         -6.27895        5.08339        0.49539
H         -7.80396        4.25158        0.21189
H         -6.91921        3.95937        1.70260
H         -6.88544        1.45349        1.26237
H         -7.84814        1.74821       -0.18689
H         -6.34755        0.83038       -0.29318
H         -6.98002        3.40878       -1.97539
H         -5.40385        4.16975       -1.75425
H         -5.51308        2.44560       -2.09890
C          7.23675       -3.07913       -0.66276
C          5.82509       -3.69328       -0.66236
C          5.26202       -3.62575       -2.09616
C          5.89942       -5.17197       -0.23921
H          7.69721       -3.14626        0.32229
H          7.88615       -3.59347       -1.37096
H          7.19810       -2.02648       -0.94267
H          5.89383       -4.18444       -2.78649
H          4.26084       -4.05384       -2.14483
H          5.21578       -2.59700       -2.45267
H          6.34485       -5.28048        0.74891
H          4.90331       -5.61314       -0.20780
H          6.50210       -5.74853       -0.94079
C          3.93832       -1.40324        4.96215
C          4.91520       -2.22280        4.09571
C          6.32259       -1.61573        4.24113
C          4.91892       -3.67489        4.60776
H          2.92715       -1.80494        4.90095
H          4.23848       -1.42403        6.00960
H          3.91380       -0.36039        4.64691
H          7.06214       -2.19227        3.68672
H          6.34154       -0.59422        3.86173
H          6.63195       -1.59385        5.28595
H          5.63439       -4.28673        4.05962
H          5.18560       -3.71560        5.66371
H          3.93378       -4.12608        4.49063
C          4.69734        2.85322       -4.02981
C          5.07492        2.06749       -2.76129
C          5.47602        0.63477       -3.16535
C          6.28853        2.73190       -2.08402
H          5.51863        2.85507       -4.74625
H          3.82865        2.41084       -4.51479
H          4.45635        3.88962       -3.79631
H          6.31817        0.64915       -3.85704
H          5.77564        0.05270       -2.29398
H          4.65433        0.11773       -3.65859
H          6.07978        3.76883       -1.82366
H          6.55407        2.20387       -1.16830
H          7.15655        2.72250       -2.74302
C          2.28954        4.63135        1.79915
C          1.94004        4.65542        0.29984
C          0.42111        4.82036        0.11723
C          2.63357        5.87118       -0.34501
H          1.83653        3.77491        2.29624
H          3.36777        4.55987        1.94053
H          1.94210        5.53600        2.29780
H         -0.12616        3.99581        0.56883
H          0.07219        5.74515        0.57557
H          0.16377        4.85427       -0.94052
H          3.71330        5.83024       -0.20308
H          2.42556        5.91864       -1.41387
H          2.27919        6.79966        0.10264
H         -0.56672       -2.12740       -5.10028
H          1.21473       -0.52241       -5.25573
H         -1.26408       -0.72399       -4.28434
H         -2.12072       -2.25999       -4.28095
H          2.14810       -0.97737       -3.82726
H          2.61311        0.43142       -4.77690
