111
-148.55723448
P         -2.66462        2.00739        0.60533
P          0.09629        0.47892        0.47983
C         -1.78370        1.62039        2.14254
C         -0.55144        1.00691        2.07783
C         -3.55321        3.62746        0.71899
C         -2.81799        4.72415       -0.02001
C         -2.33457        1.92924        3.37002
H         -3.30741        2.39009        3.41758
C         -1.64212        1.62984        4.53070
H         -2.07143        1.87088        5.48947
C         -0.40364        1.02098        4.46246
H          0.13399        0.78558        5.36619
C          0.14137        0.70377        3.23141
H          1.09830        0.21121        3.16065
Pd        -1.14384        1.64314       -1.09575
Cl        -2.62416        2.60170       -2.48121
Cl         0.41556        1.17822       -2.64076
C         -4.94608        3.28810        0.15730
C         -4.08470        0.87615        0.24291
H         -3.34640        5.67760        0.05207
H         -1.80984        4.86334        0.37745
H         -2.72111        4.48237       -1.07897
H         -4.94959        3.49256       -0.92230
H         -5.70757        3.95614        0.58789
H         -3.96956        0.57196       -0.80618
C         -5.31062        1.79548        0.40203
C         -4.07852       -0.33085        1.15576
H         -3.62473        3.86842        1.78712
H         -5.70996        1.67885        1.41889
H         -6.11989        1.47386       -0.27097
H         -4.12188       -0.02509        2.20272
H         -4.93392       -0.98246        0.96314
H         -3.16952       -0.92090        1.02403
C         -1.29323       -3.78352       -0.33797
C         -1.05468       -2.89592       -1.41818
C         -0.59825       -1.62249       -1.12861
C         -0.46834       -1.19237        0.16448
C         -0.79730       -2.01099        1.21237
C         -1.24435       -3.30326        0.99577
O         -1.54627       -5.15860       -0.58766
C         -1.27075       -3.28961       -2.88755
H         -0.32792       -0.93977       -1.91500
H         -0.69647       -1.62409        2.21086
C         -1.63942       -4.17087        2.20072
C          4.63706        0.54006        0.19175
C          3.97397       -0.57527        0.76463
C          2.59044       -0.55604        0.81984
C          1.88053        0.54046        0.40527
C          2.52060        1.66369       -0.04699
C          3.90246        1.70880       -0.13596
O          6.02796        0.47234       -0.08792
C          4.72193       -1.81119        1.28881
H          2.04176       -1.41193        1.17408
H          1.91950        2.50212       -0.35390
C          4.57640        2.99843       -0.62989
C          0.03891       -3.85071       -3.46125
C         -2.40059       -4.32596       -3.02568
C         -1.68877       -2.05638       -3.72222
C         -2.14729       -3.29308        3.36763
C         -2.78193       -5.13536        1.83453
C         -0.41205       -4.95971        2.68160
C         -0.37252       -5.95724       -0.67040
H         -0.08134       -4.13065       -4.50745
H          0.83479       -3.10882       -3.39949
H          0.36468       -4.73121       -2.91246
H         -2.59583       -4.55578       -4.07282
H         -2.14849       -5.25788       -2.52618
H         -3.32227       -3.94921       -2.58340
H         -0.87732       -1.33630       -3.81517
H         -1.97154       -2.35044       -4.73260
H         -2.54218       -1.55259       -3.26900
H         -1.34962       -2.68579        3.79301
H         -2.94554       -2.62961        3.03643
H         -2.54111       -3.91208        4.17344
H         -3.64081       -4.58473        1.45212
H         -2.47274       -5.84413        1.07023
H         -3.10522       -5.70795        2.70348
H          0.39352       -4.28298        2.96600
H         -0.65769       -5.57516        3.54666
H         -0.03361       -5.61456        1.90056
H         -0.30343       -6.40716       -1.66056
H          0.51473       -5.35076       -0.48388
H         -0.42575       -6.76005        0.06487
C          6.33475       -0.04239       -1.37776
C          4.87593       -2.83229        0.15134
C          6.10265       -1.42783        1.85123
C          3.93513       -2.47558        2.44229
C          3.73677        4.23699       -0.24243
C          5.96473        3.18139        0.00968
C          4.69826        2.95032       -2.16065
H          5.39354       -3.72677        0.49695
H          3.90049       -3.13287       -0.23076
H          5.44179       -2.41623       -0.67865
H          6.00305       -0.67339        2.63090
H          6.60572       -2.29434        2.27971
H          6.74867       -1.02264        1.07655
H          3.69407       -1.74780        3.21670
H          3.00678       -2.92473        2.09225
H          4.52087       -3.27143        2.90180
H          4.27296        5.15630       -0.47690
H          2.79360        4.27083       -0.78567
H          3.51945        4.23947        0.82537
H          6.41356        4.12745       -0.29199
H          5.89046        3.17233        1.09659
H          6.64560        2.38666       -0.28432
H          5.15924        3.85979       -2.54495
H          3.71593        2.84807       -2.62137
H          5.30254        2.10549       -2.48185
H          6.90121        0.69830       -1.94194
H          6.94955       -0.93677       -1.27848
H          5.41882       -0.28796       -1.91678
