171
-217.84550350
P         -1.57997        0.40659       -0.37249
P          1.57040       -0.40551       -0.34360
C         -0.86451        1.35651       -1.72095
C          0.88005       -1.35255       -1.70618
C         -0.07896        0.73788       -2.68648
C          0.54398        1.53429       -3.66683
C          0.32979        2.90243       -3.66458
C         -0.47394        3.49409       -2.71364
C         -1.06332        2.71570       -1.73708
C          1.09470       -2.70901       -1.72281
C          0.53084       -3.48982       -2.71274
C         -0.26790       -2.90409       -3.67180
C         -0.49832       -1.53853       -3.67245
C          0.10528       -0.73822       -2.68329
Cl         1.62245        0.39003        2.81248
Cl        -1.59063       -0.28321        2.87513
C         -1.37098       -0.94547       -4.72303
C          1.41578        0.93288       -4.71326
H         -0.63865        4.55906       -2.72940
H         -1.68438        3.17228       -0.98397
H          1.70589       -3.15977       -0.95753
H          0.70911       -4.55256       -2.73080
H          0.80256        3.50615       -4.42087
H         -0.72467       -3.51069       -4.43557
C         -3.80062       -3.36316       -1.51416
C         -4.10343       -2.18389       -2.18442
C         -3.38764       -1.04106       -1.84646
C         -2.41506       -1.09451       -0.87877
C         -2.12820       -2.26838       -0.22748
C         -2.82580       -3.43075       -0.52609
H         -4.35481       -4.24797       -1.76422
H         -3.58943       -0.09679       -2.32294
H         -1.36108       -2.27257        0.52720
C         -4.39678        2.93184        2.13179
C         -4.91887        1.87896        1.39028
C         -4.03919        1.12579        0.62391
C         -2.70165        1.43128        0.59376
C         -2.20438        2.47805        1.32939
C         -3.04189        3.24244        2.13037
H         -5.06897        3.51699        2.73051
H         -4.38967        0.28568        0.05178
H         -1.14963        2.68902        1.28748
C          4.32071       -2.95051        2.21463
C          4.87467       -1.97224        1.39797
C          4.01260       -1.21660        0.61401
C          2.66008       -1.44795        0.63986
C          2.13097       -2.42685        1.44379
C          2.95236       -3.19150        2.26108
H          4.97816       -3.52772        2.83713
H          4.38890       -0.42806       -0.01258
H          1.06468       -2.57786        1.45520
C          3.86357        3.32047       -1.49303
C          2.89987        3.40214       -0.49524
C          2.19190        2.24985       -0.18463
C          2.44125        1.07541       -0.84934
C          3.39712        1.00900       -1.83300
C          4.13368        2.13835       -2.17257
H          4.43687        4.19378       -1.74075
H          1.45373        2.26327        0.59873
H          3.57052        0.06473       -2.32035
Pd        -0.01387        0.04352        1.31532
C         -5.37288       -0.78580       -3.89114
C         -5.24148       -2.16456       -3.21498
C         -6.56796       -2.48583       -2.50199
C         -4.97313       -3.22024       -4.30425
H         -4.45107       -0.50806       -4.40099
H         -6.17137       -0.79355       -4.63294
H         -5.61051       -0.01165       -3.16179
H         -7.40265       -2.46662       -3.20249
H         -6.53984       -3.47308       -2.04212
H         -6.76936       -1.75776       -1.71674
H         -5.75341       -3.20122       -5.06494
H         -4.01920       -3.03656       -4.79656
H         -4.94396       -4.22543       -3.88583
C         -2.36990       -4.46134        1.72752
C         -2.48903       -4.73339        0.21389
C         -1.15425       -5.27516       -0.32113
C         -3.57981       -5.80204        0.00521
H         -2.18641       -5.38513        2.27591
H         -1.55016       -3.78081        1.95154
H         -3.28785       -4.01739        2.11192
H         -0.86359       -6.18817        0.19816
H         -1.23025       -5.50011       -1.38463
H         -0.35960       -4.54193       -0.19172
H         -3.36236       -6.69556        0.59034
H         -4.55538       -5.42890        0.31660
H         -3.64256       -6.10529       -1.03948
C         -7.22110        2.80138        1.00571
C         -6.42018        1.56383        1.45076
C         -6.79923        1.18878        2.89475
C         -6.79069        0.38708        0.52574
H         -8.29164        2.59723        1.01596
H         -7.03853        3.65049        1.66316
H         -6.94327        3.09549       -0.00630
H         -6.60063        2.01063        3.58169
H         -7.85762        0.93949        2.96868
H         -6.22403        0.32619        3.23072
H         -6.53973        0.61075       -0.51099
H         -6.26887       -0.52355        0.81961
H         -7.86017        0.18173        0.56963
C         -1.13102        3.99073        3.59601
C         -2.46441        4.41057        2.94243
C         -3.42734        4.84575        4.06466
C         -2.22492        5.59965        1.99744
H         -0.36263        3.79103        2.85117
H         -0.75284        4.77692        4.24911
H         -1.26225        3.08894        4.19370
H         -4.35051        5.25809        3.65876
H         -3.67884        4.00329        4.70877
H         -2.97353        5.61764        4.68615
H         -3.16139        5.93042        1.54866
H         -1.78762        6.44314        2.53134
H         -1.54966        5.32365        1.18883
C          7.11378       -3.03170        0.99863
C          6.39119       -1.73322        1.40179
C          6.83246       -1.30767        2.81390
C          6.79345       -0.62391        0.40910
H          6.79202       -3.35967        0.01033
H          8.19333       -2.88462        0.97062
H          6.90597       -3.83663        1.70257
H          6.61485       -2.08344        3.54707
H          7.90370       -1.10952        2.84519
H          6.31154       -0.40126        3.12187
H          7.87275       -0.47238        0.41409
H          6.50144       -0.88396       -0.60822
H          6.32700        0.32564        0.67121
C          3.37885       -4.93887        4.06385
C          2.31906       -4.22355        3.20466
C          1.56780       -5.27878        2.37446
C          1.33136       -3.50435        4.14406
H          3.92716       -4.22808        4.68182
H          2.91102       -5.66306        4.73069
H          4.09139       -5.47795        3.43980
H          1.12067       -6.03711        3.01696
H          0.76890       -4.82162        1.79425
H          2.24364       -5.77764        1.68013
H          0.87748       -4.20459        4.84487
H          1.84131       -2.73155        4.71868
H          0.52835       -3.02514        3.58543
C          1.15484        5.11850        0.02844
C          2.61021        4.69190        0.28476
C          3.54141        5.84146       -0.14444
C          2.81593        4.43236        1.78963
H          0.45974        4.33409        0.32336
H          0.90621        6.01899        0.58969
H          0.99649        5.32504       -1.02939
H          3.32677        6.74556        0.42526
H          4.58650        5.58363        0.02622
H          3.41088        6.07900       -1.20005
H          2.63214        5.33605        2.37036
H          2.14176        3.65954        2.15633
H          3.83626        4.10467        1.98723
C          6.60252        2.38075       -2.50509
C          5.26362        2.09908       -3.21161
C          5.01477        3.17045       -4.29015
C          5.35670        0.72313       -3.89981
H          7.43160        2.34795       -3.21172
H          6.60183        3.36381       -2.03548
H          6.79133        1.64013       -1.72844
H          5.01536        4.17256       -3.86341
H          5.78839        3.13728       -5.05713
H          4.05255        3.01622       -4.77631
H          4.42524        0.47172       -4.40546
H          6.15008        0.71764       -4.64709
H          5.58046       -0.06257       -3.17850
H         -0.83979       -0.86638       -5.67243
H          1.77643       -0.05225       -4.41434
H         -1.71389        0.05118       -4.44190
H         -2.25441       -1.56264       -4.88686
H          2.28743        1.56011       -4.90000
H          0.87645        0.82513       -5.65519
