111
-148.55606847
P         -2.53818        2.21115       -0.25055
P         -0.02936        0.42916        0.47719
C         -1.86389        2.26087        1.42545
C         -0.78297        1.46904        1.74579
C         -2.67811        3.90350       -0.98073
C         -1.54551        4.17547       -1.94772
C         -2.42854        3.08273        2.37942
H         -3.26367        3.71057        2.11388
C         -1.91621        3.09691        3.66506
H         -2.35708        3.73593        4.41266
C         -0.84164        2.29168        3.99008
H         -0.44338        2.30041        4.99137
C         -0.27264        1.47720        3.02732
H          0.56788        0.84751        3.26902
Pd        -1.20575        0.81111       -1.49971
Cl        -2.64207        0.95967       -3.20945
Cl         0.27997       -0.55204       -2.48798
C         -4.07637        3.88115       -1.62407
C         -4.31167        1.67670       -0.32988
H         -0.57388        4.09746       -1.45359
H         -1.55533        3.45476       -2.76766
H         -1.62496        5.17334       -2.38536
H         -3.97870        3.54654       -2.66619
H         -4.49043        4.89962       -1.67783
H         -4.34103        0.86874       -1.07291
C         -5.03916        2.92685       -0.86326
C         -4.82303        1.19529        1.01299
H         -2.65229        4.60822       -0.13937
H         -5.48767        3.46315       -0.01594
H         -5.88432        2.63229       -1.50347
H         -4.19465        0.40235        1.42232
H         -4.82857        2.00788        1.74071
H         -5.84493        0.81620        0.93878
C         -1.10125       -3.96094        1.04432
C          0.26149       -3.59115        0.91234
C          0.56395       -2.24806        0.77119
C         -0.42595       -1.30248        0.70301
C         -1.74757       -1.66797        0.70314
C         -2.11888       -2.99801        0.81857
O         -1.44118       -5.27787        1.45217
C          1.40478       -4.61664        0.94860
H          1.58652       -1.92358        0.70620
H         -2.48885       -0.89545        0.59496
C         -3.60405       -3.37138        0.69234
C          4.45284        1.08074       -0.05095
C          3.54102        1.61913       -0.99372
C          2.18814        1.40194       -0.79491
C          1.72986        0.73665        0.31213
C          2.60210        0.31467        1.28274
C          3.96752        0.50712        1.15199
O          5.84506        1.07814       -0.33165
C          3.99565        2.37814       -2.24971
H          1.47016        1.72880       -1.52659
H          2.20364       -0.19062        2.14492
C          4.89635        0.06516        2.29426
C          0.94788       -5.97865        0.39516
C          2.58438       -4.14582        0.06757
C          1.89689       -4.77413        2.39505
C         -3.78180       -4.82275        0.20979
C         -4.29156       -3.18122        2.05234
C         -4.29434       -2.46857       -0.35507
C         -1.57652       -5.41963        2.86049
H          0.54740       -5.86842       -0.61202
H          1.77736       -6.68425        0.35581
H          0.17158       -6.41823        1.01678
H          2.24374       -3.90990       -0.94025
H          3.06982       -3.26261        0.47867
H          3.34506       -4.92241       -0.00858
H          2.24569       -3.82015        2.79002
H          1.09915       -5.13011        3.04349
H          2.72064       -5.48518        2.45239
H         -4.83381       -5.05619        0.04777
H         -3.25016       -4.98261       -0.72764
H         -3.39614       -5.53310        0.93655
H         -3.83962       -3.81661        2.81143
H         -4.20350       -2.14854        2.38882
H         -5.35131       -3.42765        1.99233
H         -5.31497       -2.80125       -0.54227
H         -4.35124       -1.43473       -0.02296
H         -3.75448       -2.49187       -1.30139
H         -2.59997       -5.70304        3.10537
H         -0.90751       -6.20455        3.21331
H         -1.33158       -4.48228        3.36162
C          6.29599       -0.09328       -1.00035
C          2.92881        3.41127       -2.67986
C          5.29652        3.15814       -1.98780
C          4.19795        1.37751       -3.39780
C          6.16131        0.94081        2.35380
C          4.18596        0.21105        3.65939
C          5.28141       -1.40902        2.09776
H          2.02363        2.92862       -3.04545
H          2.66008        4.06099       -1.84734
H          3.30292        4.03981       -3.48765
H          5.17273        3.83900       -1.14634
H          6.12098        2.48846       -1.75622
H          5.58390        3.74494       -2.85990
H          4.50279        1.88708       -4.31143
H          4.96160        0.64386       -3.15101
H          3.27416        0.83723       -3.60380
H          6.76451        0.82929        1.45644
H          5.89521        1.99304        2.44843
H          6.78539        0.67071        3.20530
H          3.78728        1.21768        3.78282
H          3.36656       -0.49811        3.76652
H          4.87983        0.02296        4.47842
H          5.95174       -1.74615        2.88796
H          5.78068       -1.56318        1.14406
H          4.39597       -2.04345        2.11531
H          6.76007        0.18253       -1.94716
H          7.04308       -0.59980       -0.38955
H          5.46073       -0.76926       -1.18811
