59
-75.79972169
Cl         1.53542        0.67692        2.36444
P          1.56631        0.01384       -0.76267
P         -1.58488       -0.15244       -0.81867
C          0.63664        0.34384       -2.32519
H          0.37746        1.40477       -2.35642
H          1.29343        0.13815       -3.17615
C         -0.60295       -0.50557       -2.34196
H         -0.34533       -1.56722       -2.34845
H         -1.22950       -0.31587       -3.21912
C          2.39570       -1.63245       -0.89110
H          1.86426       -2.22107       -1.64883
C          3.06336        1.08469       -0.52803
H          3.03673        1.40917        0.51999
C         -2.89018       -1.41188       -0.45061
H         -2.91806       -1.50620        0.64200
C         -2.65195        1.33789       -1.08220
H         -2.54027        1.61762       -2.13675
C          3.80803       -1.23921       -1.36641
H          4.52823       -2.02869       -1.10783
H          3.82149       -1.17480       -2.46500
C          4.25212        0.12373       -0.76546
H          4.98719        0.60833       -1.42353
H          4.78417       -0.05083        0.18112
C         -4.17047       -0.72400       -0.95494
H         -4.31867       -0.98298       -2.01259
H         -5.05163       -1.11931       -0.42646
C         -4.07600        0.81960       -0.80355
H         -4.35844        1.09911        0.22063
H         -4.80377        1.32315       -1.45758
C          2.36293       -2.34638        0.45662
H          1.33242       -2.35209        0.83714
H          2.92989       -1.74996        1.18416
C          3.05565        2.31175       -1.43306
H          4.05780        2.76289       -1.43889
H          2.87937        1.98902       -2.46724
C         -2.60566       -2.77027       -1.07959
H         -3.49953       -3.40287       -0.98740
H         -2.45722       -2.63853       -2.15914
C         -2.21647        2.48561       -0.17988
H         -2.31866        2.16990        0.86707
H         -1.14249        2.66648       -0.32028
C          2.89717       -3.77058        0.40204
H          2.83175       -4.26815        1.37235
H          3.94349       -3.79679        0.09422
H          2.33547       -4.37365       -0.31392
C          2.02955        3.35185       -1.00792
H          2.24666        3.73310       -0.00822
H          1.02550        2.93000       -0.97122
H          2.00385        4.20657       -1.68763
C         -1.40752       -3.46952       -0.45491
H         -0.50506       -2.86384       -0.54057
H         -1.20196       -4.43366       -0.92541
H         -1.56759       -3.65012        0.60976
C         -2.99856        3.76735       -0.42415
H         -2.88757        4.10548       -1.45617
H         -4.06548        3.62144       -0.24641
H         -2.66618        4.57987        0.22596
Cl        -1.73558        0.04002        2.36777
Pd        -0.05015        0.09386        0.89218
