111
-148.55693163
P         -1.53423        2.83518        0.15642
P         -0.61411       -0.19133        0.40587
C         -1.53920        2.01624        1.77465
C         -1.22046        0.67750        1.87274
C         -0.27927        4.19199        0.09367
C          0.80890        3.86589       -0.90657
C         -1.85238        2.73662        2.90948
H         -2.06580        3.79001        2.82830
C         -1.87203        2.10755        4.14202
H         -2.12037        2.66863        5.02811
C         -1.57183        0.76258        4.23704
H         -1.58533        0.27224        5.19655
C         -1.23674        0.04884        3.10090
H         -0.97735       -0.99483        3.16754
Pd        -1.41838        1.09385       -1.34977
Cl        -1.88796        2.58270       -2.96530
Cl        -1.27789       -0.63786       -2.76834
C         -1.11381        5.43689       -0.27047
C         -3.07673        3.80433       -0.17614
H          1.34222        2.95401       -0.63227
H          0.38445        3.70795       -1.90008
H          1.53864        4.67546       -0.98111
H         -1.00767        5.62690       -1.34731
H         -0.70567        6.33005        0.22615
H         -3.29418        3.65771       -1.24249
C         -2.62034        5.25333        0.07027
C         -4.24938        3.34783        0.66570
H          0.12916        4.27921        1.10908
H         -2.79488        5.50725        1.12480
H         -3.24262        5.95349       -0.50795
H         -5.15280        3.91489        0.43011
H         -4.46270        2.28858        0.50516
H         -4.04776        3.48293        1.72866
C         -0.74304       -4.72477        0.83956
C          0.16862       -3.95974        1.61068
C          0.15930       -2.58282        1.46103
C         -0.66857       -1.97442        0.55307
C         -1.46544       -2.71896       -0.27636
C         -1.49776       -4.10052       -0.18655
O         -0.91781       -6.10766        1.11268
C          1.14110       -4.59831        2.61471
H          0.81118       -1.96088        2.05057
H         -2.04280       -2.20183       -1.02180
C         -2.34188       -4.89691       -1.19466
C          3.61881        1.29007       -0.37734
C          2.94015        0.53096       -1.36749
C          1.65906        0.08849       -1.08761
C          1.08286        0.31347        0.13402
C          1.77529        0.94422        1.13288
C          3.06414        1.40558        0.92557
O          4.80045        1.99963       -0.71322
C          3.52640        0.18731       -2.74612
H          1.06739       -0.39830       -1.84466
H          1.28903        1.09296        2.08166
C          3.80391        2.01504        2.12745
C          1.59508       -5.98941        2.13641
C          2.41503       -3.73573        2.76724
C          0.45673       -4.70733        3.98564
C         -3.76808       -5.06060       -0.64858
C         -2.41318       -4.15631       -2.54999
C         -1.71840       -6.27703       -1.47237
C         -1.94724       -6.38726        2.05285
H          2.04108       -5.92727        1.14434
H          2.33386       -6.41546        2.81476
H          0.75916       -6.68263        2.08352
H          2.86192       -3.52843        1.79519
H          2.20334       -2.78657        3.25755
H          3.15952       -4.24956        3.37496
H          0.15713       -3.72346        4.34609
H         -0.43594       -5.32585        3.93214
H          1.12748       -5.14747        4.72310
H         -4.39291       -5.61459       -1.34867
H         -3.76870       -5.59529        0.29828
H         -4.23002       -4.08807       -0.48033
H         -2.99006       -3.23571       -2.47778
H         -1.41487       -3.90649       -2.90823
H         -2.89474       -4.77641       -3.30563
H         -2.27902       -6.81388       -2.23719
H         -0.69031       -6.17089       -1.81698
H         -1.70797       -6.89514       -0.57813
H         -2.70591       -7.01700        1.58856
H         -1.52901       -6.92811        2.90163
H         -2.40619       -5.46129        2.40159
C          4.54157        3.31201       -1.18523
C          2.83739        1.04776       -3.81905
C          5.04801        0.40430       -2.80724
C          3.26960       -1.30455       -3.05499
C          3.64152        1.08604        3.35134
C          5.31408        2.16373        1.87447
C          3.19651        3.38965        2.45476
H          1.76061        0.88074       -3.82028
H          3.00709        2.10810       -3.64285
H          3.21505        0.80772       -4.81249
H          5.30106        1.45634       -2.70048
H          5.54634       -0.14198       -2.00719
H          5.45566        0.06266       -3.75837
H          2.20687       -1.52219       -3.14688
H          3.74160       -1.59368       -3.99359
H          3.67600       -1.93596       -2.26541
H          2.60335        1.01449        3.67140
H          3.99251        0.08074        3.11967
H          4.21734        1.45630        4.19915
H          5.83117        2.50267        2.77186
H          5.74801        1.21174        1.57066
H          5.51402        2.88692        1.08769
H          2.13577        3.30118        2.68785
H          3.29468        4.07410        1.61432
H          3.69210        3.83969        3.31450
H          4.06262        3.90312       -0.40670
H          5.48281        3.78464       -1.46646
H          3.88421        3.27575       -2.05226
