  72
        -98.10393521
 Fe        -0.0110497229        2.8272738697       -0.0023374352
 P          1.8310486730       -0.0087772435       -0.0570956200
 P         -1.8264676745       -0.0247684420        0.0600531459
 C          1.3991245665        1.6005967699        0.7072128655
 C          0.3987169609        1.7991848271        1.7403115361
 C          0.3245803371        3.2207388872        2.0211129404
 C          1.3066871886        3.8931478550        1.1903640978
 C          2.0051971899        2.8888954809        0.4066306372
 C         -1.4204388054        1.5957961353       -0.6963721927
 C         -2.0339547598        2.8762317900       -0.3783116367
 C         -1.3638113073        3.8973230511       -1.1648593265
 C         -0.3716925523        3.2468210170       -2.0007265674
 C         -0.4168995974        1.8231592098       -1.7206233700
 C          3.1843177143       -0.7693755316        0.9641410314
 C          4.3855230788        0.0897928130        0.5346900590
 C          2.8828134613        0.3219044401       -1.5577160267
 C          4.3054208984        0.4872327928       -0.9684375652
 C         -3.1578134981       -0.8071596744       -0.9743942365
 C         -4.3739432304        0.0405679439       -0.5641982202
 C         -2.9018814214        0.2898920055        1.5477027143
 C         -4.3162660128        0.4487079087        0.9374292897
 H         -0.2041528179        1.0169586361        2.1978811921
 H         -0.3415535804        3.6973588901        2.7434042684
 H          1.5142039839        4.9655137459        1.1860053810
 H          2.8042789290        3.0707688850       -0.3145459030
 H         -2.8333213658        3.0417241700        0.3464119269
 H          0.1980347613        1.0545304031       -2.1856677250
 Cl         1.5611820388       -3.0587806551       -0.4329293449
 Cl        -1.5153660089       -3.0680278833        0.4765678919
 Pd         0.0082281358       -1.4819705691       -0.0122701379
 H          3.3188156093       -1.7994706441        0.6139413957
 C          2.9083156632       -0.7569722858        2.4691381267
 H          2.5269035340        1.2573453955       -2.0056154214
 C          2.8137488300       -0.8109818697       -2.5805369106
 H          5.3304806179       -0.4296759799        0.7581517874
 H          4.3967718508        0.9963391868        1.1576390795
 H          4.6654928786        1.5166935317       -1.1122498540
 H          4.9993815405       -0.1386961330       -1.5465596264
 H         -1.5898034322        4.9657627956       -1.1524726778
 H          0.2842032170        3.7381997736       -2.7227815392
 H          3.8654049256       -0.7288752278        3.0084996985
 H          3.6410188124       -0.6989378843       -3.2953347430
 H         -3.2845220097       -1.8366186549       -0.6192574643
 C         -2.8632792397       -0.8009831971       -2.4770379022
 H         -2.5580717027        1.2250335084        2.0056504347
 C         -2.8425384234       -0.8465753929        2.5665978794
 H         -5.3101240512       -0.4912445563       -0.7953965148
 H         -4.3883137196        0.9429455499       -1.1931513346
 H         -4.6800041011        1.4785522963        1.0686260903
 H         -5.0174493468       -0.1740660768        1.5102850883
 H         -3.8131735052       -0.7535230497       -3.0276552560
 H         -3.0374140957       -1.7917084837        2.0432951250
 C          2.0975424036       -1.9555509339        2.9381470639
 H          1.1632090564       -2.0455502358        2.3865485167
 H          2.6438614783       -2.8869981449        2.7778384007
 H          1.8513939922       -1.8969426322        4.0007371425
 C          1.4999031417       -0.8862085809       -3.3382588715
 H          1.3195055668        0.0238712317       -3.9135078381
 H          1.4780883220       -1.7248386649       -4.0379699452
 H          0.6616225956       -1.0128832001       -2.6555319475
 C         -2.0722229798       -2.0163465001       -2.9377641700
 H         -1.1448101381       -2.1264855306       -2.3778903904
 H         -2.6394408987       -2.9361878911       -2.7831449252
 H         -1.8149149000       -1.9630073094       -3.9979880474
 C         -1.5328177362       -0.9284927592        3.3300720800
 H         -1.5175857727       -1.7681157844        4.0287582891
 H         -0.6932139398       -1.0585573325        2.6497109694
 H         -1.3504915634       -0.0197818044        3.9068550374
 H          2.4045838406        0.1821296834        2.7312625644
 H          3.0086268072       -1.7585573785       -2.0616115235
 H         -2.3377693737        0.1276309418       -2.7336387205
 H         -3.6733945544       -0.7344184910        3.2771829351
  72
        -98.09959094
 Fe        -0.0302711180        2.8331241139       -0.1005852498
 P          1.8303040799       -0.0280164218        0.0077684616
 P         -1.8048721835       -0.0797034454       -0.0998308107
 C          1.3972309206        1.6383996193        0.6488720154
 C          0.4235410159        1.9384614725        1.6841573900
 C          0.3761759813        3.3790705145        1.8572121311
 C          1.3404706929        3.9714940308        0.9492992230
 C          1.9877892135        2.8966770204        0.2171086621
 C         -1.3922171753        1.5486236796       -0.8257018699
 C         -2.0315209522        2.8181936124       -0.5207611484
 C         -1.3720995500        3.8518078464       -1.3008715302
 C         -0.3410483372        3.2203168330       -2.1042499285
 C         -0.3584415385        1.7970125427       -1.8160093577
 C          2.9737947509        0.2043833764       -1.4446558364
 C          4.3514192567        0.4272138775       -0.7743658769
 C          3.1104966492       -0.7486840034        1.1431317784
 C          4.3511901811        0.0670488041        0.7414747898
 C         -3.1876117432       -0.8371004553       -1.0731120434
 C         -4.4287156510       -0.3695446864       -0.2951137026
 C         -2.6821177071        0.1211650237        1.5253179710
 C         -4.1424949219       -0.2750011787        1.2257429547
 H         -0.1522140167        1.2099770192        2.2521182274
 H         -0.2557390786        3.9191978159        2.5657396834
 H          1.5608755900        5.0369678533        0.8527508252
 H          2.7678495081        3.0133288020       -0.5376765124
 H         -2.8650663257        2.9625927599        0.1698334950
 H          0.3010688972        1.0450950133       -2.2497242495
 Cl         1.6035879599       -3.1082869123       -0.3212993844
 Cl        -1.5091948951       -3.1221511667        0.3655005615
 Pd         0.0260268815       -1.5227894825       -0.0453418320
 H          2.6394411596        1.1026775987       -1.9771148024
 C          2.9971780650       -0.9870410687       -2.4007513828
 H          3.2426854052       -1.7992550353        0.8595340762
 C          2.7541417645       -0.6453562416        2.6250312677
 H          4.6879643938        1.4643463880       -0.9202753689
 H          5.0990302579       -0.1875154174       -1.2951005181
 H          5.2712526404       -0.4695544218        1.0209332590
 H          4.3604482298        0.9895925138        1.3405849808
 H         -1.6246856239        4.9144710486       -1.3008615627
 H          0.3241141344        3.7239427620       -2.8093323789
 H          3.8484563719       -0.8741921726       -3.0866088810
 H          3.6760419414       -0.7191697793        3.2186175184
 H         -3.0740264421       -1.9245083605       -0.9934382152
 C         -3.1961990542       -0.4181527233       -2.5389731322
 H         -2.6084227418        1.1845225809        1.7820248284
 C         -2.0522794982       -0.7331467981        2.6201822421
 H         -5.2806357111       -1.0373714494       -0.4965008288
 H         -4.7307823485        0.6165889910       -0.6753672732
 H         -4.8382614640        0.4249643234        1.7118549779
 H         -4.3435458624       -1.2512913579        1.6871462801
 H         -4.1433974313       -0.7358508518       -2.9966912124
 H         -0.9689115704       -0.5728802670        2.6334623541
 C          1.7233605054       -1.1699397452       -3.2060827827
 H          0.8742609780       -1.3689100502       -2.5548308851
 H          1.4909695652       -0.2788406159       -3.7920265355
 H          1.7965578442       -2.0092935092       -3.9014670692
 C          1.7685678387       -1.7086324830        3.0826965255
 H          2.1790914023       -2.7110193940        2.9472181738
 H          1.5050895069       -1.5997910874        4.1371754149
 H          0.8449228616       -1.6684076985        2.5082420559
 C         -2.0257599620       -0.9807104217       -3.3249477269
 H         -2.0108580039       -2.0716398451       -3.2883662888
 H         -2.0532581457       -0.6840364571       -4.3758825443
 H         -1.0808943897       -0.6323609125       -2.9115943915
 C         -2.6338046016       -0.4593081936        3.9987686246
 H         -2.4905113534        0.5842546909        4.2855644539
 H         -3.7071946917       -0.6549762925        4.0239072763
 H         -2.1693675547       -1.0788088084        4.7693889049
 H          3.2140461981       -1.8939863548       -1.8218638355
 H          2.3629030582        0.3597732418        2.8272549595
 H         -3.2019447695        0.6783490806       -2.5941391777
 H         -2.1760190215       -1.7916769884        2.3566683096
  72
        -98.09876851
 Fe        -0.0287478620        2.7932916542        0.1618744866
 P          1.8403483740       -0.0600189401        0.0709348923
 P         -1.8374297230       -0.0897200905       -0.0788140563
 C          1.3882508750        1.5410282369        0.8401543337
 C          0.3807526260        1.7380105819        1.8684009218
 C          0.3191692349        3.1569267103        2.1700684342
 C          1.3082385066        3.8337124749        1.3513406016
 C          1.9852267996        2.8335740975        0.5437792979
 C         -1.4176363534        1.6004562329       -0.6521211167
 C         -2.0405417777        2.8369626484       -0.2070207102
 C         -1.3900542959        3.9397715488       -0.8938801583
 C         -0.3852206505        3.3855442285       -1.7826232171
 C         -0.4118435369        1.9401454749       -1.6443942995
 C          3.1987738946       -0.8376603402        1.0572573509
 C          4.4494916941       -0.2200272460        0.4101720011
 C          2.7830937420        0.2322731561       -1.5005374884
 C          4.2572148622       -0.0280534196       -1.1186326494
 C         -2.7818531019       -0.0019485069        1.5164393310
 C         -4.2513186751       -0.2457956858        1.1071139719
 C         -3.1845595920       -0.7667786330       -1.1515644095
 C         -4.4446457623       -0.2557260880       -0.4335176864
 H         -0.2232249379        0.9584005045        2.3317378673
 H         -0.3399714017        3.6281893916        2.9025646376
 H          1.5255278848        4.9041069862        1.3612166715
 H          2.7963654934        3.0161686914       -0.1640665162
 H         -2.8562352466        2.9176956169        0.5144696154
 H          0.2093163174        1.2336180765       -2.1944624459
 Cl         1.5721274968       -3.1062821159       -0.4326901019
 Cl        -1.5258498638       -3.1415773603        0.0862996022
 Pd         0.0185406796       -1.5021232272       -0.0988068081
 H          3.1636297743       -1.9155906921        0.8613466227
 C          3.0711157284       -0.5731713238        2.5524571019
 H          2.6236029953        1.2840877458       -1.7653660574
 C          2.2853700011       -0.6766388920       -2.6186815039
 H          5.3365297228       -0.8363557377        0.6242651804
 H          4.6443805020        0.7528382860        0.8837071383
 H          4.9010913777        0.7808613661       -1.4943722580
 H          4.5991798931       -0.9342526081       -1.6365447950
 H         -1.6328633468        4.9986480568       -0.7804269831
 H          0.2624269797        3.9534499682       -2.4544091598
 H          4.0101771338       -0.8531698580        3.0498420747
 H          2.4947239799       -1.7191823772       -2.3446355003
 H         -2.6428549827        1.0152234121        1.9010719957
 C         -2.2637659938       -1.0232821627        2.5226232666
 H         -3.1292422833       -1.8596939231       -1.0885504166
 C         -3.0662175690       -0.3200230460       -2.6036169033
 H         -4.9108409232        0.4978771892        1.5783769218
 H         -4.5722676521       -1.2150026784        1.5120780516
 H         -5.3205352075       -0.8586315157       -0.7195901549
 H         -4.6594695371        0.7632119508       -0.7860424388
 H         -2.4565256247       -2.0313832092        2.1324460822
 H         -2.9868335576        0.7746124623       -2.6323173159
 C          1.9061285699       -1.3171165902        3.1831527990
 H          1.8053990737       -1.1001123478        4.2489256517
 H          0.9669497860       -1.0482579430        2.7016924596
 H          2.0209843976       -2.3972204676        3.0742054810
 C          2.8991595259       -0.3492037064       -3.9715627791
 H          3.9862849878       -0.4422761010       -3.9488018634
 H          2.5298204948       -1.0098612335       -4.7592166471
 H          2.6707051380        0.6761067589       -4.2688041086
 C         -2.8772799064       -0.8626946896        3.9053403716
 H         -3.9627900029       -0.9710952597        3.8743665722
 H         -2.4937346695       -1.6024512245        4.6116935526
 H         -2.6647497003        0.1257891123        4.3170830586
 C         -1.8880245882       -0.9574844060       -3.3205765700
 H         -1.7963399033       -0.6121543934       -4.3527834889
 H         -0.9527167974       -0.7277976747       -2.8119767317
 H         -1.9793281048       -2.0450960371       -3.3418510529
 H          2.9691594804        0.5080235004        2.7136668714
 H          1.1925325660       -0.6173705370       -2.6792478858
 H         -1.1719059129       -0.9523076801        2.5866162150
 H         -4.0007468464       -0.5568035301       -3.1310779690
  72
        -98.09730653
 Fe         0.0081322833        2.7958170356       -0.0254388409
 P          1.8252752215       -0.0495430567        0.0493287941
 P         -1.8538175945       -0.0595313767        0.0424919454
 C          1.3967354183        1.5876174158        0.7404392956
 C          0.3762408157        1.8357722739        1.7442944831
 C          0.3156670317        3.2677319566        1.9752171104
 C          1.3153585388        3.9003615908        1.1337780473
 C          2.0055033514        2.8605915559        0.3892086279
 C         -1.4312861510        1.5719238818       -0.6912027607
 C         -2.0246608431        2.8556615571       -0.3471113087
 C         -1.3722853636        3.8799509318       -1.1441477882
 C         -0.4081481375        3.2342530744       -2.0143193548
 C         -0.4388894922        1.8116949812       -1.7257766678
 C          3.2295724033       -0.7550110757        1.0304648157
 C          4.4536776050       -0.2008421468        0.2825620344
 C          2.7045256987        0.1259170568       -1.5769741733
 C          4.1948099706       -0.1033836185       -1.2434496554
 C         -3.1677636858       -0.8633478558       -1.0043139867
 C         -4.5006147540       -0.4450941583       -0.3425513458
 C         -2.9127796659        0.2257698536        1.5461003525
 C         -4.2934924010        0.4593042957        0.9023903865
 H         -0.2493118056        1.0783739649        2.2168985041
 H         -0.3558665533        3.7770190893        2.6698394363
 H          1.5335670665        4.9698234193        1.0917940069
 H          2.8215353409        3.0044024823       -0.3222339087
 H         -2.7906518621        3.0284964417        0.4105823696
 H          0.1628500113        1.0511363262       -2.2220091445
 Cl         1.4991853279       -3.1711119074       -0.2145118252
 Cl        -1.5477649660       -3.1168310757        0.4060972972
 Pd         0.0025035027       -1.5056288321        0.0701944213
 H          3.1760695109       -1.8447234039        0.9232713278
 C          3.1966859849       -0.3689385499        2.5046358501
 H          2.5282011724        1.1544010780       -1.9136467020
 C          2.1739143535       -0.8703585457       -2.6018027592
 H          5.3424662372       -0.8151104989        0.4949626654
 H          4.6840885294        0.7972765825        0.6816650267
 H          4.8161343920        0.6840061627       -1.6951808400
 H          4.5216788682       -1.0374734996       -1.7198792067
 H         -1.5943814820        4.9489532659       -1.1173895913
 H          0.2312043945        3.7285072830       -2.7490386637
 H          4.1475393736       -0.6597634403        2.9724831144
 H          2.4126815924       -1.8867946325       -2.2613143570
 H         -3.0168901383       -1.9446872376       -0.9053906185
 C         -3.0722014883       -0.4735320651       -2.4754803118
 H         -2.5451000725        1.1274282469        2.0503782153
 C         -2.9405713147       -0.9535984423        2.5168510017
 H         -5.0722342635       -1.3412124749       -0.0604825513
 H         -5.1270325473        0.0716373412       -1.0829967919
 H         -4.3960045758        1.5145529302        0.6105146864
 H         -5.0868999212        0.2841440634        1.6444688074
 H         -4.0010737400       -0.7610127341       -2.9876156852
 H         -3.2107837963       -1.8583099750        1.9569657344
 C          2.0356063599       -0.9925140493        3.2562771534
 H          1.0871596531       -0.6654290246        2.8343431608
 H          2.0595644571       -2.0819677533        3.1914250234
 H          2.0350242664       -0.7222035660        4.3146632402
 C          2.7207981810       -0.6354957150       -4.0018634842
 H          3.8093334673       -0.7107076338       -4.0224240549
 H          2.3284346982       -1.3580987080       -4.7210087464
 H          2.4608497504        0.3614346463       -4.3629378427
 C         -1.8841953269       -1.1083435799       -3.1760985820
 H         -0.9568902726       -0.8524700597       -2.6681158850
 H         -1.9572146317       -2.1976262985       -3.1725640333
 H         -1.7944007895       -0.7849348654       -4.2155721291
 C         -1.6446905415       -1.1753201530        3.2747434079
 H         -1.7279680259       -1.9909537637        3.9967416094
 H         -0.8355463604       -1.4345894165        2.5945822677
 H         -1.3459416289       -0.2807439087        3.8241050810
 H          3.1583969127        0.7254929600        2.5834985217
 H          1.0798182670       -0.8323579019       -2.6166831226
 H         -3.0276196641        0.6208934381       -2.5492752881
 H         -3.7616556007       -0.8035312843        3.2316050431
  72
        -98.09694654
 Fe         0.0019317695        2.8095701461        0.0568258645
 P          1.8554397964       -0.0582323904        0.0099979108
 P         -1.8594058558       -0.0618322583        0.0324734482
 C          1.3921805432        1.5506875109        0.7638835652
 C          0.3471342190        1.7669910266        1.7496635724
 C          0.2978784290        3.1835731534        2.0666570263
 C          1.3144261611        3.8557068965        1.2796498439
 C          1.9695791772        2.8509733540        0.4585574780
 C         -1.4272434492        1.5810642171       -0.6627448881
 C         -1.9764337592        2.8666253827       -0.2593931286
 C         -1.3222628432        3.9107559156       -1.0316697513
 C         -0.3579504776        3.2765946919       -1.9116916794
 C         -0.4140484642        1.8456378907       -1.6687418615
 C          3.1786088771       -0.8620488500        1.0509784074
 C          4.4656507832       -0.7059278193        0.2127830744
 C          2.8695435703        0.2600559120       -1.5180969346
 C          4.2932569434        0.3243902075       -0.9324705938
 C         -3.2071468375       -0.7818881666       -1.0247434786
 C         -4.4074989428        0.0679380059       -0.5735233409
 C         -2.9205562161        0.1930904301        1.5392676862
 C         -4.3312110358        0.4207357037        0.9422187390
 H         -0.3025441453        0.9967032951        2.1641653663
 H         -0.3778295251        3.6567775683        2.7826983474
 H          1.5375022398        4.9247681220        1.2914685925
 H          2.7851237696        3.0342796517       -0.2443244838
 H         -2.7605148831        3.0172330489        0.4858900689
 H          0.1850760378        1.0896558033       -2.1725617090
 Cl         1.6079114214       -3.0338001450       -0.3847315660
 Cl        -1.5540724358       -3.1116962984        0.1991961621
 Pd        -0.0051678509       -1.4922106489       -0.0427704016
 H          2.9074226499       -1.9199110170        1.1495199134
 C          3.2933849672       -0.2469189505        2.4439182693
 H          2.5607939596        1.2266623162       -1.9340572337
 C          2.7427107638       -0.8393091236       -2.5733823274
 H          4.7559894708       -1.6779197141       -0.2117028108
 H          5.2994551838       -0.4146326827        0.8670200695
 H          4.4969381522        1.3356301754       -0.5503325441
 H          5.0347632889        0.1513674708       -1.7268912708
 H         -1.5301375555        4.9816779379       -0.9704187298
 H          0.2955860154        3.7832840588       -2.6255550011
 H          4.2494717733       -0.5485248497        2.8940165605
 H          3.5810565621       -0.7544746964       -3.2787023325
 H         -3.3496702041       -1.8226818628       -0.7114511896
 C         -2.9150494546       -0.7194403908       -2.5256087114
 H         -2.5564481442        1.0906594184        2.0527892382
 C         -2.8857414964       -1.0060248858        2.4853221630
 H         -5.3533840892       -0.4414167053       -0.8154995357
 H         -4.4136527076        0.9925360251       -1.1695277363
 H         -4.6585201231        1.4575063989        1.1101287783
 H         -5.0512950305       -0.1968439140        1.4971278069
 H         -3.8651211496       -0.6515786091       -3.0737662502
 H         -3.1298050396       -1.9089829037        1.9104618673
 C          2.1529186298       -0.6424947679        3.3660043898
 H          1.1924018463       -0.3506549618        2.9463536674
 H          2.1201629828       -1.7236313995        3.5141250486
 H          2.2374142300       -0.1761355449        4.3501630307
 C          1.4345211934       -0.8239098713       -3.3432449610
 H          1.3073566561        0.1105855726       -3.8930292637
 H          1.3765786858       -1.6392889801       -4.0679968299
 H          0.5843260593       -0.9280623650       -2.6718072489
 C         -2.1234711883       -1.9173173571       -3.0290973762
 H         -2.6952725998       -2.8407066620       -2.9187781050
 H         -1.8543801706       -1.8208201047       -4.0833152141
 H         -1.2033641212       -2.0542730943       -2.4627939066
 C         -1.5665622376       -1.1914039366        3.2155575888
 H         -1.5932540740       -2.0460510942        3.8954303033
 H         -0.7492853203       -1.3652884403        2.5169330105
 H         -1.3137377174       -0.3107711261        3.8088256091
 H          3.3533865146        0.8446708953        2.3447645729
 H          2.8828980125       -1.8097793320       -2.0806457294
 H         -2.3890124480        0.2178801937       -2.7473988283
 H         -3.6978849431       -0.9035797746        3.2187443862
  72
        -98.09613147
 Fe         0.0421674473        2.8298801543        0.0154672844
 P          1.8849356782       -0.0401243958       -0.0018280749
 P         -1.7574167201       -0.0563118664       -0.0476340340
 C          1.4215179223        1.5882054105        0.7023444284
 C          0.4226618121        1.8108804729        1.7350751471
 C          0.3746906309        3.2358393283        2.0106579526
 C          1.3673402741        3.8905722874        1.1768474684
 C          2.0268977837        2.8705524814        0.3780731033
 C         -1.3728679523        1.6098335132       -0.7170417341
 C         -1.9882219070        2.8673090426       -0.3183647520
 C         -1.3658230144        3.9353711288       -1.0800216548
 C         -0.3794260731        3.3383699284       -1.9597977622
 C         -0.4045959441        1.9009741896       -1.7589068065
 C          3.3354617640       -0.6656417782        0.9698185661
 C          4.4944326766        0.0943542456        0.3042820980
 C          2.7704180154        0.1592294174       -1.6257219635
 C          4.2584765721        0.2982928701       -1.2190430294
 C         -2.8453765491       -0.9402763324       -1.2704244056
 C         -4.2554497498       -0.8800737034       -0.6478047742
 C         -3.0093410975        0.1628080027        1.3138662395
 C         -4.3293355687        0.1399486694        0.5187297610
 H         -0.1899149348        1.0416666537        2.2045716172
 H         -0.2764745889        3.7253390777        2.7383632514
 H          1.5936129189        4.9592100542        1.1667304376
 H          2.8324701856        3.0310396783       -0.3419285880
 H         -2.7755569958        2.9891168256        0.4277943870
 H          0.2078101575        1.1686033792       -2.2815573503
 Cl         1.6667577663       -3.0990337191        0.0186761354
 Cl        -1.4721907710       -3.0992097012        0.5561535308
 Pd         0.0687544742       -1.5110700679        0.1294794263
 H          3.4226290951       -1.7399161572        0.7714313730
 C          3.2208244640       -0.4138659359        2.4692289575
 H          2.4020151114        1.0819425206       -2.0885427722
 C          2.5429003939       -1.0340569095       -2.5563747976
 H          5.4494623151       -0.4208713048        0.4916247838
 H          4.5907199327        1.0728400973        0.7971077677
 H          4.6559247592        1.2719703665       -1.5419621731
 H          4.8443828372       -0.4457454121       -1.7762478777
 H         -1.6055537482        4.9983469144       -1.0102378771
 H          0.2487636171        3.8730703830       -2.6755460263
 H          4.2027428796       -0.5746640407        2.9356412615
 H          3.3086175674       -1.0203312343       -3.3447575976
 H         -2.4836108634       -1.9744546615       -1.3237565117
 C         -2.7540144866       -0.3013271831       -2.6522265674
 H         -2.8270301178        1.1432886337        1.7698591852
 C         -2.9803767515       -0.9220142241        2.3882336370
 H         -4.5475566057       -1.8756146054       -0.2836704222
 H         -4.9923887702       -0.6249292012       -1.4215225730
 H         -4.5410768635        1.1421231725        0.1170580920
 H         -5.1685152305       -0.0962245546        1.1901277995
 H         -3.1718450143        0.7129201018       -2.6003198767
 H         -3.0628947751       -1.9002470995        1.8985004515
 C          2.1797851489       -1.2907123955        3.1410623815
 H          1.1967934140       -1.1256265224        2.7045644128
 H          2.4115814410       -2.3497553830        3.0132468718
 H          2.1024316682       -1.0943282738        4.2128074412
 C          1.1662658339       -1.0888731969       -3.1994285014
 H          0.9886301823       -0.2172932430       -3.8319879488
 H          1.0456975467       -1.9741407576       -3.8280725661
 H          0.3753989773       -1.1185471733       -2.4511737028
 C         -3.4488783884       -1.1113672905       -3.7373539190
 H         -3.0235358223       -2.1140412259       -3.8113909951
 H         -4.5138197914       -1.2296380000       -3.5317465385
 H         -3.3564230071       -0.6426004634       -4.7197253458
 C         -1.7534614393       -0.8813099483        3.2791027763
 H         -1.7796281591       -1.6559350269        4.0489702632
 H         -0.8485864691       -1.0382290275        2.6960001969
 H         -1.6593842383        0.0816685733        3.7844862429
 H          2.9930905929        0.6472766464        2.6343155038
 H          2.7337358570       -1.9542645322       -1.9887816916
 H         -1.6972922268       -0.1628295597       -2.9146099514
 H         -3.8853223968       -0.8352719727        3.0054361917
