  100
       -131.97186323
 C         -3.1183551905       -2.8303406396       -1.3317363453
 C         -1.9412511590       -3.3932040433       -0.6634853628
 C         -2.7971277888       -1.5186138235       -1.7678020860
 C         -1.3846704399       -1.2080715460       -1.4011712947
 C         -0.5696531012       -0.3403179665       -2.3129207120
 C         -0.8747074540       -2.4378919238       -0.7028294945
 C          0.5522427324       -2.8339765028       -0.3637713333
 C          1.0977532311       -3.8425510018       -1.3523884729
 Cl        -0.5708634005        1.3491507035        2.6211943480
 Cl         0.4627539829       -1.7066204653        2.6080305818
 C          0.6857709599        1.2325976855       -4.2708078716
 C          0.2240268879       -0.0292127655       -4.5924144211
 C          0.5305584173        1.7116842281       -2.9779316670
 C         -0.3989289253       -0.7957085508       -3.6389468198
 C         -0.0606369033        0.9409777948       -2.0066563071
 H         -1.8569730400       -4.4115332877       -0.2788545190
 H         -3.4313553104       -0.8920310496       -2.3989907371
 H          1.1800509710       -3.3980915685       -2.3459682779
 H          2.0820172715       -4.2092969832       -1.0533444251
 H          0.4374683500       -4.7086587368       -1.4410773373
 H          1.1620135626        1.8431932686       -5.0202644603
 H          0.3417347935       -0.4059015826       -5.5955595203
 H          0.8672045808        2.7073834274       -2.7349108877
 H         -0.7817956363       -1.7682887425       -3.8969086839
 H         -4.0608693700       -3.3526447609       -1.5147041691
 P         -0.1691409021        1.6960221626       -0.3790677196
 H          0.5183685876       -3.2917293789        0.6344244747
 P          1.7616083445       -1.4376936301       -0.1306108940
 H          1.7336404007       -0.7668759854       -2.4089804434
 C          3.6058304902       -1.8369910703       -2.3532368674
 C          2.5555876255       -0.9107068254       -1.7119818448
 C          3.5476410153       -1.7320282894       -3.8812439020
 H          3.6006583545       -2.8029289078        0.5185059792
 C          4.0247567707       -0.9485772989        1.5651359007
 C          3.0551276427       -2.0180454383        1.0448922016
 H          4.3063053234       -0.3081168961        0.7105495078
 C          3.3942287718       -0.0564455804        2.6375198455
 H          0.9759455537        3.7787705652       -0.7639567317
 H         -2.0445692767        2.5772169866        0.8348186933
 C         -4.2564973719        2.4659887641       -0.9152809779
 C         -2.8788322868        1.7821230415       -1.0024508324
 C         -1.8050777018        2.5637510822       -0.2353914048
 C         -1.7288575109        4.0080643381       -0.7562546191
 C         -3.1007515365        4.7095962981       -0.6804647439
 C         -4.1774211796        3.9113325743       -1.4389230902
 H         -4.5932187203        2.4755282983        0.1286207433
 H         -5.0141676233        1.8888183450       -1.4637432123
 H         -2.5736219087        1.7100094700       -2.0540313064
 H         -2.9234308675        0.7485409435       -0.6429343447
 H         -0.9755273749        4.5817103231       -0.2012752306
 H         -1.3785678481        3.9881373886       -1.7955363573
 H         -3.3972921280        4.8091839793        0.3711598300
 H         -3.0338773398        5.7371103953       -1.0648162354
 H         -3.9330442359        3.8971948819       -2.5085931689
 H         -5.1557830535        4.4073918550       -1.3672337984
 C          3.6888611224        3.4088070305       -0.1537343378
 C          2.5703895753        2.3800984653       -0.4178652105
 C          1.1837005788        2.9453370723       -0.0825090047
 C          1.1479064446        3.4645864358        1.3619058132
 C          2.2423180763        4.5194212236        1.6084085812
 C          3.6325351839        3.9383810468        1.2912208476
 H          3.5822263308        4.2476544651       -0.8527847945
 H          4.6742004749        2.9715646594       -0.3687222519
 H          2.7412611028        1.4826953567        0.1858414708
 H          2.5981807856        2.0506301992       -1.4637455546
 H          0.1512457060        3.8503940905        1.6147795229
 H          1.3090347927        2.6192443852        2.0404219755
 H          2.0566215032        5.3907783627        0.9682761782
 H          2.1985104959        4.8957484023        2.6400522876
 H          3.8507527740        3.1185434608        1.9869770086
 H          4.4181548907        4.6874261586        1.4646497158
 H          3.3626619695       -2.8750671332       -2.0747315622
 C          5.0208533271       -1.5352732717       -1.8558828401
 H          2.5604751998       -2.5080112523        1.8834524507
 C          5.2970552238       -1.6017125280        2.1174134185
 H          2.9970859042        0.0698271480       -1.5529962889
 H          4.2767217785       -2.3899458764       -4.3566841827
 H          3.7636060368       -0.7127268487       -4.2031605364
 H          2.5603891884       -1.9947649157       -4.2647387777
 H          5.2926570840       -0.5012107295       -2.0706910244
 H          5.1171589546       -1.6854402129       -0.7826993540
 H          5.7582132907       -2.1750417606       -2.3435215028
 H          2.5537555465        0.5181154303        2.2552438203
 H          3.0277904868       -0.6565719219        3.4707275855
 H          4.1182739766        0.6542620394        3.0389303802
 H          6.0168415740       -0.8539236526        2.4540486507
 H          5.0594516628       -2.2366807431        2.9714987055
 H          5.7897928135       -2.2280348122        1.3725328118
 Fe        -2.5878239350       -1.6783507385        0.2687340793
 C         -2.9652283097       -2.5147444665        2.1328310977
 C         -4.1576089334       -2.5041551008        1.3063518084
 C         -4.4626703840       -1.1269666623        0.9616879268
 C         -3.4554658844       -0.2856375077        1.5760333624
 C         -2.5349361137       -1.1419290914        2.2924630578
 H         -2.4833676451       -3.3943445188        2.5654776449
 H         -4.7475878707       -3.3800567653        1.0258121870
 H         -5.3160297373       -0.7834322811        0.3724332878
 H         -3.4386236021        0.8052297227        1.5823675507
 H         -1.6770853310       -0.8018013869        2.8714225871
 Pd         0.3550788242       -0.0314460315        1.0942321175
  100
       -131.96858151
 C         -3.1422725397       -2.8283680726       -1.3709954621
 C         -1.9773592510       -3.4114287577       -0.6990851370
 C         -2.8096252741       -1.4967773961       -1.7375135341
 C         -1.3848948770       -1.2134957576       -1.3884280287
 C         -0.5642370888       -0.3571657111       -2.3072541894
 C         -0.9030141519       -2.4634173244       -0.7012819653
 C          0.5013636545       -2.8567065294       -0.2730451682
 C          1.0784299388       -3.9476867829       -1.1510627434
 Cl        -0.5598042553        1.3780701976        2.6222079161
 Cl         0.4869575498       -1.6418170097        2.6493846577
 C          0.6754261743        1.2017391560       -4.2878731362
 C          0.2292165888       -0.0704355415       -4.5902083803
 C          0.5137128884        1.6983434185       -3.0024751560
 C         -0.3873368971       -0.8293284079       -3.6264050985
 C         -0.0696534199        0.9347902854       -2.0206148056
 H         -1.9099092878       -4.4342252144       -0.3222648207
 H         -3.4358530281       -0.8475898364       -2.3544790258
 H          1.2103413376       -3.5926011253       -2.1743630251
 H          2.0467002505       -4.2906076657       -0.7815242133
 H          0.4164485955       -4.8160071359       -1.1937171388
 H          1.1467902743        1.8057435324       -5.0457028340
 H          0.3524775242       -0.4609751385       -5.5873560781
 H          0.8465644246        2.6981581229       -2.7708398592
 H         -0.7621848695       -1.8084371293       -3.8713062010
 H         -4.0920468239       -3.3330487970       -1.5667729105
 P         -0.1572968760        1.7052680912       -0.3988867998
 H          0.4224558413       -3.2290096896        0.7572730765
 P          1.7155647264       -1.4583517285       -0.1217260129
 H          1.7754200736       -1.4521975661       -2.5362177836
 C          3.8713580490       -1.2666069024       -2.0782265959
 C          2.3963639772       -0.9818940604       -1.7750044027
 C          4.1290236583       -2.7476148454       -2.3577331522
 H          3.6180891416       -2.7527999266        0.5141247410
 C          3.9942838402       -0.8705125746        1.5224925077
 C          3.0511518010       -1.9823262134        1.0367035539
 H          4.1452060029       -0.1678095132        0.6853283640
 C          3.4109209935       -0.0845706676        2.6995869955
 H          1.0263249024        3.7666126869       -0.7985151187
 H         -2.0160967189        2.6023835808        0.8309416761
 C         -4.2408579824        2.4932922651       -0.9055960782
 C         -2.8680786581        1.7993883962       -0.9935269355
 C         -1.7852046032        2.5821645246       -0.2412710546
 C         -1.7029219929        4.0214363548       -0.7744942123
 C         -3.0702446596        4.7318443767       -0.6984555032
 C         -4.1550955211        3.9327126291       -1.4444245019
 H         -4.5713283072        2.5167930442        0.1400131915
 H         -5.0056217591        1.9154776542       -1.4434128759
 H         -2.5696607982        1.7146641364       -2.0461761236
 H         -2.9152383330        0.7696435699       -0.6226822539
 H         -0.9424643990        4.5945640913       -0.2285852019
 H         -1.3579834239        3.9904447868       -1.8153350435
 H         -3.3610564606        4.8427558253        0.3536209202
 H         -2.9993129393        5.7553606905       -1.0925994579
 H         -3.9150829222        3.9060201623       -2.5148423077
 H         -5.1300552663        4.4356009227       -1.3740437975
 C          3.7391787900        3.3323851547       -0.1602727812
 C          2.5950498389        2.3365796513       -0.4416058171
 C          1.2183745196        2.9326778723       -0.1131878805
 C          1.1868008770        3.4547977240        1.3304048449
 C          2.3049453187        4.4820754875        1.5846629400
 C          3.6817045245        3.8625410245        1.2840574216
 H          3.6664923692        4.1746698951       -0.8595827173
 H          4.7139700836        2.8666333083       -0.3633656076
 H          2.7345764007        1.4275934493        0.1523353117
 H          2.6282411346        2.0183777916       -1.4904183924
 H          0.1983439110        3.8646970196        1.5776378355
 H          1.3241769059        2.6059038336        2.0098380104
 H          2.1489434605        5.3549623917        0.9387183720
 H          2.2602954079        4.8639605589        2.6142334688
 H          3.8683934529        3.0365850629        1.9816337857
 H          4.4860367220        4.5890857925        1.4672402159
 H          4.4625236515       -0.9738531923       -1.1947488493
 C          4.3416564788       -0.4130206238       -3.2609538090
 H          2.5896546024       -2.4793635998        1.8902021548
 C          5.3605434480       -1.4517116442        1.9006977566
 H          2.2118133204        0.0861163661       -1.8607511641
 H          5.1801531815       -2.9312511117       -2.5863075375
 H          3.5455454376       -3.0838632357       -3.2154030601
 H          3.8635248357       -3.3776164107       -1.5107483657
 H          3.7689417282       -0.6527676198       -4.1574985484
 H          4.2116265244        0.6525053885       -3.0647090550
 H          5.3952151210       -0.5856157580       -3.4862094661
 H          3.1970094364       -0.7492814003        3.5368343301
 H          4.1078660040        0.6758310644        3.0550777461
 H          2.4820207755        0.4188514509        2.4393058419
 H          6.0516933665       -0.6717944968        2.2242345239
 H          5.2598294134       -2.1633788182        2.7207166844
 H          5.8194789718       -1.9782150346        1.0622082141
 Fe        -2.6062848864       -1.7355069287        0.2431692571
 C         -4.5083575394       -1.3526280248        0.9568596483
 C         -3.5728526037       -0.3910775898        1.5064747702
 C         -2.5440651790       -1.1353599773        2.2013676516
 C         -2.8582400248       -2.5472165910        2.1185626845
 C         -4.0914869692       -2.6818269947        1.3670657258
 H         -5.4134607041       -1.1117096926        0.3944159990
 H         -3.6615828182        0.6962849866        1.4742526470
 H         -1.7042825855       -0.6973839457        2.7400309663
 H         -2.2824151472       -3.3593648892        2.5683957713
 H         -4.6094249132       -3.6171462161        1.1438532846
 Pd         0.3312778416       -0.0154362364        1.0851562244
  100
       -131.96798067
 C         -3.1310085942       -2.8084885962       -1.5067565304
 C         -1.9682957695       -3.3997945990       -0.8396808203
 C         -2.8119549872       -1.4651899641       -1.8394408505
 C         -1.4048002077       -1.1659479798       -1.4333458272
 C         -0.5783639294       -0.2873467263       -2.3256829904
 C         -0.9155010889       -2.4304473264       -0.7741371230
 C          0.4770898675       -2.8156045528       -0.2953870278
 C          1.0752039345       -3.9121591931       -1.1516500472
 Cl        -0.6180550873        1.4584599314        2.5806966851
 Cl         0.6338823750       -1.5414653243        2.7578090434
 C          0.7132684059        1.2858317352       -4.2619550438
 C          0.2141019299        0.0445098212       -4.6046385902
 C          0.5754939666        1.7449631939       -2.9599293455
 C         -0.4264959781       -0.7203668510       -3.6619774430
 C         -0.0341067239        0.9753494942       -1.9984555622
 H         -1.8948433755       -4.4318186804       -0.4913823619
 H         -3.4383642192       -0.8040452169       -2.4429214799
 H          1.2041112015       -3.5664914550       -2.1789801576
 H          2.0460733850       -4.2377566695       -0.7718269643
 H          0.4255764740       -4.7900265164       -1.1875631421
 H          1.2042013440        1.8963666931       -5.0019386116
 H          0.3173385684       -0.3174694708       -5.6147754397
 H          0.9416210382        2.7263958810       -2.7019377531
 H         -0.8354181658       -1.6779045752       -3.9358725669
 H         -4.0664065522       -3.3235391468       -1.7397793601
 P         -0.1095503544        1.7263818491       -0.3642981541
 H          0.3633576337       -3.1837733261        0.7335031940
 P          1.7064160663       -1.4333867305       -0.0951915558
 H          1.6398653858       -0.8872224058       -2.4036113800
 C          3.5300473330       -1.9194605505       -2.3157618491
 C          2.4731259662       -0.9741850314       -1.7111080400
 C          3.4047143159       -1.9539424407       -3.8430630750
 H          3.5657562140       -2.7960490243        0.5075132461
 C          4.0126733332       -0.9437129799        1.5416484591
 C          3.0299689303       -2.0145179318        1.0485204498
 H          4.2664997086       -0.3018657595        0.6797284650
 C          3.4147684924       -0.0527852121        2.6328709650
 H          1.0860901603        3.7799569509       -0.7624274828
 H         -1.9165021590        2.7131467758        0.8763439332
 C         -4.2042537720        2.5111654478       -0.7468544770
 C         -2.8404574732        1.8032643625       -0.8553125863
 C         -1.7249397847        2.6234424558       -0.1998697464
 C         -1.6562792542        4.0271664905       -0.8215355887
 C         -3.0156240042        4.7511565572       -0.7303347246
 C         -4.1368530444        3.9150173263       -1.3752866674
 H         -4.4838908256        2.5986358924        0.3103513167
 H         -4.9958524636        1.9085494510       -1.2139342156
 H         -2.5895843872        1.6541271965       -1.9131291181
 H         -2.8728858346        0.7986734997       -0.4192573526
 H         -0.8709770021        4.6248975382       -0.3407406807
 H         -1.3543483420        3.9321355385       -1.8717781421
 H         -3.2586574588        4.9309731857        0.3243432175
 H         -2.9573136021        5.7470086243       -1.1916800397
 H         -3.9466468558        3.8218434706       -2.4519774083
 H         -5.1054811734        4.4279111795       -1.2911284854
 C          3.7896078731        3.3330401186       -0.1141740207
 C          2.6412619103        2.3413517001       -0.3920446832
 C          1.2686509116        2.9481441934       -0.0719582699
 C          1.2307178659        3.4810040795        1.3671822078
 C          2.3572189247        4.4993258593        1.6225912181
 C          3.7309303336        3.8700545820        1.3277178236
 H          3.7219662301        4.1722548301       -0.8176373904
 H          4.7626224673        2.8618064397       -0.3129491723
 H          2.7753513191        1.4361443482        0.2089165128
 H          2.6708666796        2.0151121156       -1.4389180046
 H          0.2448494228        3.9066922343        1.5982513440
 H          1.3487148380        2.6364274321        2.0556405861
 H          2.2098614716        5.3727790480        0.9753636257
 H          2.3124747073        4.8829289850        2.6515257902
 H          3.9110940639        3.0464585291        2.0296698653
 H          4.5391227118        4.5926134473        1.5096851602
 H          3.3368134804       -2.9360599685       -1.9357784909
 C          4.9523991585       -1.5272648608       -1.9107641570
 H          2.5599734567       -2.5084156851        1.8986651826
 C          5.3028271030       -1.5944945975        2.0537036780
 H          2.8949492863        0.0229053020       -1.6142450798
 H          3.5737536680       -0.9618121843       -4.2630141594
 H          2.4114253803       -2.2779934101       -4.1580078399
 H          4.1345571300       -2.6304987621       -4.2903275493
 H          5.0972277529       -1.5717763285       -0.8334933604
 H          5.6919342515       -2.1862792655       -2.3685470805
 H          5.1778042097       -0.5099021831       -2.2324339905
 H          2.5454283328        0.4999128296        2.2835649648
 H          3.0972127371       -0.6521651272        3.4863652727
 H          4.1423060682        0.6745244949        2.9962345518
 H          6.0310654845       -0.8453534585        2.3684573844
 H          5.0931843110       -2.2305601490        2.9142592997
 H          5.7734156938       -2.2194005160        1.2934390467
 Fe        -2.6554477679       -1.7453771660        0.1682745810
 C         -2.4744701162       -1.8597540247        2.2021759915
 C         -3.3942583246       -2.8696129673        1.7188715467
 C         -4.4799680148       -2.1928949189        1.0339747914
 C         -4.2261443595       -0.7661645596        1.0889219580
 C         -2.9935810533       -0.5596037900        1.8227164774
 H         -1.5240835760       -2.0423638917        2.7050957394
 H         -3.2930765272       -3.9488788898        1.8562731624
 H         -5.3479417773       -2.6728344956        0.5759348209
 H         -4.8821494495        0.0140056314        0.6967012408
 H         -2.5189513540        0.3971151437        2.0423454106
 Pd         0.2971457067       -0.0143470383        1.1277755409
  100
       -131.96610904
 C         -3.1236711756       -2.8452405335       -1.4690949149
 C         -1.9561390972       -3.4101402940       -0.7859876296
 C         -2.8077199966       -1.5245796406       -1.8822439459
 C         -1.4184239581       -1.1957753564       -1.4409006846
 C         -0.5930566932       -0.3099211094       -2.3281389611
 C         -0.9039078120       -2.4398414769       -0.7642617744
 C          0.4996595526       -2.8119982376       -0.3135000005
 C          1.0944097436       -3.8931986604       -1.1914796195
 Cl        -0.5516433666        1.4257753363        2.6478957250
 Cl         0.5439336213       -1.6149186706        2.7270129299
 C          0.6879318469        1.2778096351       -4.2603807334
 C          0.1935029632        0.0360297580       -4.6076789004
 C          0.5518873608        1.7294090572       -2.9555546332
 C         -0.4419504183       -0.7355482335       -3.6670753735
 C         -0.0504968180        0.9518841642       -1.9957282407
 H         -1.8751561984       -4.4316357416       -0.4097198188
 H         -3.4346444928       -0.8885994069       -2.5113841632
 H          1.2112366530       -3.5324172345       -2.2150774637
 H          2.0704667094       -4.2196823107       -0.8260371837
 H          0.4481126960       -4.7733132174       -1.2331406505
 H          1.1737630852        1.8943953560       -4.9987147522
 H          0.2955985757       -0.3207174510       -5.6197943081
 H          0.9126894378        2.7120126228       -2.6945613107
 H         -0.8478467395       -1.6932017456       -3.9450858228
 H         -4.0525684161       -3.3780195837       -1.6883350160
 P         -0.1243212168        1.6954502689       -0.3596680397
 H          0.4063831618       -3.1934656503        0.7125948030
 P          1.7167130695       -1.4189389012       -0.1168740057
 H          1.6473346182       -0.8884664666       -2.4278606431
 C          3.5518032213       -1.8931260557       -2.3323761825
 C          2.4811270488       -0.9606034177       -1.7338549880
 C          3.4497561171       -1.9100596997       -3.8616979793
 H          3.5715352826       -2.7788011194        0.5007224015
 C          4.0137541483       -0.9321469039        1.5473735494
 C          3.0323419201       -1.9971892680        1.0382615826
 H          4.2737985662       -0.2818048101        0.6937895867
 C          3.4116484877       -0.0524158142        2.6457262793
 H          1.0502807406        3.7611609191       -0.7590521107
 H         -1.9549113580        2.6358880175        0.8833215129
 C         -4.2080254140        2.5093359747       -0.8023569661
 C         -2.8435122715        1.8016730147       -0.9064223635
 C         -1.7414917175        2.5906542051       -0.1916419240
 C         -1.6578231140        4.0187250409       -0.7547034382
 C         -3.0176504123        4.7420736897       -0.6680337708
 C         -4.1229470257        3.9356576119       -1.3746783184
 H         -4.5107025743        2.5595496962        0.2508786323
 H         -4.9906457923        1.9273255613       -1.3090131549
 H         -2.5681773647        1.6946791817       -1.9632958543
 H         -2.8879205655        0.7799711729       -0.5137332353
 H         -0.8843661910        4.5965459662       -0.2325566392
 H         -1.3312498560        3.9650439637       -1.8004903009
 H         -3.2869559218        4.8789002329        0.3867281004
 H         -2.9463537412        5.7559145432       -1.0863958724
 H         -3.9042521555        3.8834736107       -2.4487251489
 H         -5.0926450133        4.4474614222       -1.2963092369
 C          3.7630847376        3.3499361859       -0.1507711696
 C          2.6258721558        2.3412363313       -0.4131369351
 C          1.2487740508        2.9279687188       -0.0746580082
 C          1.2249365957        3.4566220229        1.3666060004
 C          2.3375167179        4.4936267929        1.6061526718
 C          3.7167060981        3.8860133879        1.2919173759
 H          3.6732501729        4.1881405661       -0.8529702977
 H          4.7401565773        2.8933070248       -0.3632674475
 H          2.7818075840        1.4382667323        0.1859147516
 H          2.6467149986        2.0163090241       -1.4603943944
 H          0.2356545912        3.8620632537        1.6178758400
 H          1.3718643625        2.6129470222        2.0502287597
 H          2.1668707526        5.3640847430        0.9606260163
 H          2.3009392819        4.8770385440        2.6354770962
 H          3.9197758405        3.0651902379        1.9909900921
 H          4.5159133487        4.6212265335        1.4624983009
 H          3.3583692798       -2.9150893418       -1.9673394792
 C          4.9655435983       -1.4977866219       -1.9014959895
 H          2.5527473560       -2.4922514286        1.8825033354
 C          5.2997628240       -1.5908264469        2.0600553041
 H          2.8899638861        0.0421510686       -1.6426337649
 H          3.6192692531       -0.9120231255       -4.2672256357
 H          2.4632230996       -2.2359756266       -4.1954246789
 H          4.1902341281       -2.5770468242       -4.3058474982
 H          5.1895867367       -0.4750963736       -2.2068216719
 H          5.0946476811       -1.5552199316       -0.8229279982
 H          5.7157433258       -2.1466216167       -2.3564606276
 H          2.5591620279        0.5233664226        2.2930705683
 H          3.0700485977       -0.6619487912        3.4826211363
 H          4.1450339150        0.6558195857        3.0342740555
 H          6.0279423921       -0.8464843642        2.3861256076
 H          5.0839770180       -2.2347957215        2.9131892680
 H          5.7733187334       -2.2092913333        1.2963841577
 Fe        -2.6718865049       -1.7165261713        0.1553012277
 C         -2.5311844493       -1.8632098715        2.2031161229
 C         -3.4908470163       -2.8210642677        1.6926810989
 C         -4.5236953125       -2.0816675869        0.9924344490
 C         -4.1962761293       -0.6713131072        1.0732742579
 C         -2.9833827204       -0.5305123906        1.8538035649
 H         -1.6072935895       -2.1023176860        2.7302995175
 H         -3.4445534730       -3.9058357333        1.8145558334
 H         -5.4045279559       -2.5098487088        0.5081631416
 H         -4.8130242237        0.1441777311        0.6898240095
 H         -2.4629527594        0.3969186909        2.0925588882
 Pd         0.3430087762       -0.0116189400        1.1506447108
  100
       -131.96480715
 C         -3.1154893530       -2.8732688102       -1.4867762664
 C         -1.9512853164       -3.4644742691       -0.8228380546
 C         -2.8038075616       -1.5246607916       -1.8071425841
 C         -1.3955644095       -1.2207240704       -1.4037983399
 C         -0.5696811017       -0.3482680914       -2.3043835743
 C         -0.9077285102       -2.4862485241       -0.7427350038
 C          0.4778491688       -2.8488925911       -0.2263181772
 C          1.0992332738       -3.9835139154       -1.0145466560
 Cl        -0.5076606282        1.4986408403        2.5846067230
 Cl         0.4955153974       -1.5395448404        2.7564269391
 C          0.6686265705        1.2270303155       -4.2739230347
 C          0.2321374434       -0.0460653850       -4.5839823664
 C          0.4997492015        1.7151494083       -2.9862608162
 C         -0.3832651304       -0.8120433466       -3.6255314078
 C         -0.0825030164        0.9451446059       -2.0078264468
 H         -1.8766660197       -4.4952556457       -0.4716105563
 H         -3.4329897954       -0.8639472441       -2.4085017898
 H          1.2725916716       -3.6854342118       -2.0499411535
 H          2.0534608673       -4.2955819123       -0.5853787435
 H          0.4469547549       -4.8599098031       -1.0357245107
 H          1.1394953298        1.8377082435       -5.0267189332
 H          0.3617930502       -0.4315561859       -5.5822957288
 H          0.8297151417        2.7147751227       -2.7503903900
 H         -0.7509950442       -1.7922684109       -3.8768584007
 H         -4.0492467149       -3.3902341025       -1.7216557368
 P         -0.1537269789        1.7187567794       -0.3826011987
 H          0.3512347343       -3.1637101125        0.8183061807
 P          1.6963280151       -1.4518365165       -0.0960343162
 H          1.7503910133       -1.5101571846       -2.5077333721
 C          3.8468125967       -1.2986968577       -2.0620131968
 C          2.3709271272       -1.0146995734       -1.7619391822
 C          4.1111556922       -2.7841478481       -2.3102179880
 H          3.5888644564       -2.7476895434        0.5653125106
 C          3.9839484250       -0.8488610484        1.5328606930
 C          3.0290239173       -1.9614433429        1.0716887708
 H          4.1410557650       -0.1659177921        0.6807344826
 C          3.4113187857       -0.0312337185        2.6935514966
 H          1.0449341597        3.7592835641       -0.8443538298
 H         -1.9568375718        2.6972265957        0.8674133880
 C         -4.2474992868        2.4750975506       -0.7577477816
 C         -2.8787145573        1.7754650884       -0.8610890726
 C         -1.7698566004        2.6073715295       -0.2097607365
 C         -1.7106746072        4.0085237592       -0.8381482954
 C         -3.0753328729        4.7232387021       -0.7534766218
 C         -4.1889751058        3.8749457816       -1.3958367518
 H         -4.5271117370        2.5699950946        0.2987707847
 H         -5.0354240248        1.8638342438       -1.2197502373
 H         -2.6261263126        1.6225504973       -1.9180946148
 H         -2.9013618197        0.7724826244       -0.4201231153
 H         -0.9296567066        4.6140410851       -0.3600119825
 H         -1.4068257731        3.9102209058       -1.8875610112
 H         -3.3216379969        4.9072875332        0.2996969475
 H         -3.0234619062        5.7167885898       -1.2205153819
 H         -3.9951045515        3.7756754249       -2.4713246090
 H         -5.1615088409        4.3813675604       -1.3178007376
 C          3.7574076305        3.3194780897       -0.2201414294
 C          2.6016618507        2.3249833699       -0.4546818556
 C          1.2334522376        2.9448907085       -0.1350056119
 C          1.2206549337        3.5187011933        1.2886040250
 C          2.3496439953        4.5448432543        1.4945126752
 C          3.7181561016        3.9024204831        1.2043229373
 H          3.6859849864        4.1363380695       -0.9491139654
 H          4.7259516055        2.8373699964       -0.4147753215
 H          2.7383919574        1.4361773567        0.1695077549
 H          2.6217757112        1.9690337461       -1.4915109977
 H          0.2379319140        3.9460296328        1.5291359299
 H          1.3591143389        2.6936849949        1.9964489665
 H          2.1949537166        5.3946667911        0.8182096554
 H          2.3180009176        4.9648066433        2.5096365431
 H          3.9041656559        3.1007280283        1.9298736686
 H          4.5304408451        4.6278736679        1.3535707423
 H          4.4381889937       -0.9841466213       -1.1863151036
 C          4.3107566440       -0.4685958236       -3.2638358958
 H          2.5635871761       -2.4358881464        1.9358773660
 C          5.3447515883       -1.4358671892        1.9216410889
 H          2.1789551627        0.0493472308       -1.8765554612
 H          5.1636851772       -2.9683366298       -2.5317967227
 H          3.5318223440       -3.1400638108       -3.1627437245
 H          3.8450314509       -3.3978580072       -1.4515315548
 H          3.7372524622       -0.7301131910       -4.1537670315
 H          4.1762962050        0.6003208010       -3.0903135670
 H          5.3646013475       -0.6412671459       -3.4876868122
 H          2.4865733713        0.4753580766        2.4246739531
 H          3.1932437057       -0.6749996852        3.5459398359
 H          4.1164828648        0.7301590108        3.0302428439
 H          6.0443078673       -0.6563950528        2.2277185753
 H          5.2379287721       -2.1288820013        2.7567263050
 H          5.7970483325       -1.9847713040        1.0939765517
 Fe        -2.6242158783       -1.7923871932        0.1819339505
 C         -4.5039905940       -2.1098197095        1.0071445668
 C         -4.1298924744       -0.7200529434        1.1730517926
 C         -2.8757548851       -0.6904865158        1.8993210738
 C         -2.5052297433       -2.0516439550        2.2375935317
 C         -3.5002925716       -2.9304937464        1.6590049015
 H         -5.4074659702       -2.4744720879        0.5130361379
 H         -4.7111226945        0.1427435765        0.8428087544
 H         -2.3095426881        0.2011640158        2.1745378315
 H         -1.6007107656       -2.3585237107        2.7630240886
 H         -3.5119140776       -4.0206088349        1.7323151944
 Pd         0.3208340861       -0.0079773110        1.1078249857
