  45
        -71.82203286
 C          0.3918088987        1.4882585288        3.1177956307
 P         -0.1827918263        0.7744013149        1.5404361804
 P         -0.1521745513        0.8068566121       -1.5342646255
 C          0.4524320839        1.5500660130       -3.0866526606
 Cl         2.9652081513       -0.0862384895        1.6656151848
 H         -0.4332214010        1.5528916158        3.8213235510
 H          0.8496063206        2.5420604460       -2.8914057855
 Cl         3.0409890313       -0.0113581027       -1.5871699537
 C         -1.3629684028        1.8412431462        0.6903167512
 C         -1.3498252472        1.8550868184       -0.6862448251
 C         -2.2645582994        2.6176897894       -1.3835966407
 C         -3.1922197707        3.3758534101       -0.6913011731
 C         -3.2055355792        3.3619153851        0.6904081859
 C         -2.2912462086        2.5897836632        1.3850628570
 H         -2.2529123349        2.6096934273       -2.4612299896
 H         -3.9076541336        3.9741044021       -1.2311763095
 H         -3.9314472384        3.9492082899        1.2283231171
 H         -2.3006875023        2.5598384043        2.4623265939
 Pd         1.5282993725        0.4019159662        0.0140744745
 H         -0.3583364342        1.6255227547       -3.8055158597
 H          0.7950219004        2.4825682611        2.9484380801
 H          1.2399204140        0.9312667500       -3.5073772659
 C         -1.7473917666       -3.4219129849       -1.9906932529
 C         -0.3898984332       -3.1808864446       -2.0731507068
 C          0.0861637306       -1.8881962038       -1.9564515590
 C         -0.7953125013       -0.8507265614       -1.7586493755
 C         -2.1480293815       -1.0841537088       -1.6741829393
 C         -2.6278853340       -2.3760277945       -1.7931628028
 H         -2.1204607954       -4.4293273843       -2.0771144093
 H          0.2977259592       -3.9971388732       -2.2215050678
 H          1.1432793906       -1.6768542941       -1.9978979984
 H         -2.8194405496       -0.2585380312       -1.5015048203
 H         -3.6862503166       -2.5659886310       -1.7226537751
 C         -1.8155306302       -3.4502278392        1.8961115919
 C         -2.6859497712       -2.3926534128        1.7170695066
 C         -2.1943315346       -1.1027660072        1.6282026677
 C         -0.8400569200       -0.8828696210        1.7241251330
 C          0.0310778899       -1.9321066192        1.9043470098
 C         -0.4564901696       -3.2228157300        1.9905328322
 H         -2.1977131054       -4.4559641714        1.9591120120
 H         -3.7456087013       -2.5717249141        1.6379709070
 H         -2.8578479579       -0.2678060712        1.4706266420
 H          1.0894198458       -1.7305789405        1.9584395128
 H          0.2233335965       -4.0479542106        2.1250309268
 H          1.1691631326        0.8599911734        3.5432811179
  45
        -71.82185039
 C          0.3759914154        1.4880063943        3.1409406187
 P         -0.1829024976        0.7738706181        1.5587099923
 P         -0.1408077967        0.8015564793       -1.5481030411
 C          0.4603303109        1.5441054578       -3.1015143774
 Cl         2.9667046334       -0.0595656062        1.6678266672
 H         -0.4548470320        1.5491603254        3.8379228968
 H          1.2496019700        0.9270398643       -3.5214308967
 Cl         3.0067937475       -0.0322678187       -1.5898970466
 C         -1.3520271229        1.8368210674        0.6873963244
 C         -1.3332949877        1.8491298743       -0.6898800482
 C         -2.2433068089        2.6139081163       -1.3908441925
 C         -3.1714413052        3.3758666145       -0.7033572943
 C         -3.1902212582        3.3635396556        0.6781136876
 C         -2.2809398474        2.5892083032        1.3768824109
 H         -2.2276914726        2.6049793595       -2.4685037498
 H         -3.8827024138        3.9758424008       -1.2468261747
 H         -3.9161375292        3.9539075403        1.2126537481
 H         -2.2946233743        2.5610912522        2.4542359307
 Pd         1.5143698725        0.4111122085        0.0247978514
 H          0.8544844271        2.5376526391       -2.9080420321
 H          0.7773183703        2.4837926128        2.9758057140
 H         -0.3509001024        1.6157278140       -3.8202595022
 C         -1.7478795247       -3.4239390544       -1.9913442397
 C         -2.6261806375       -2.3731621712       -1.8106585777
 C         -2.1424127277       -1.0823495043       -1.6956871605
 C         -0.7879284685       -0.8548053466       -1.7677066831
 C          0.0912075129       -1.8972602630       -1.9484895631
 C         -0.3886353821       -3.1888800572       -2.0609362035
 H         -2.1240751186       -4.4304621952       -2.0745610070
 H         -3.6859985990       -2.5584333332       -1.7501795568
 H         -2.8123057805       -0.2529063992       -1.5358567969
 H          1.1493968134       -1.6901601446       -1.9805285908
 H          0.2972822061       -4.0088620721       -2.1960343261
 C         -1.7970371732       -3.4599301263        1.8799784978
 C         -0.4404328853       -3.2254154359        1.9906920458
 C          0.0408476355       -1.9316313356        1.9154100691
 C         -0.8342308119       -0.8864974119        1.7303634904
 C         -2.1860247324       -1.1134392850        1.6175715999
 C         -2.6712910271       -2.4064688054        1.6953232120
 H         -2.1742149018       -4.4680701165        1.9340797089
 H          0.2425158360       -4.0473789228        2.1287605899
 H          1.0975868211       -1.7245906339        1.9797583897
 H         -2.8522451271       -0.2815554329        1.4550987515
 H         -3.7288776443       -2.5912218144        1.6027414121
 H          1.1520396920        0.8618750813        3.5719388059
  45
        -71.82159594
 C          0.3803939874        1.4884985814        3.1489158126
 P         -0.1761918356        0.7744177422        1.5661656186
 P         -0.1455626588        0.8017048554       -1.5580818769
 C          0.4557194689        1.5460245966       -3.1101357455
 Cl         2.9591406440       -0.0269733912        1.6656023387
 H          1.1567431227        0.8630237116        3.5803032589
 H         -0.3555985652        1.6193728862       -3.8286124164
 Cl         3.0319772830       -0.0673108264       -1.5551730093
 C         -1.3444234199        1.8357694673        0.6900586061
 C         -1.3308409905        1.8476160697       -0.6877319415
 C         -2.2427792017        2.6130576070       -1.3853037859
 C         -3.1678377046        3.3761361412       -0.6949075868
 C         -3.1816648020        3.3642108527        0.6865354640
 C         -2.2704573683        2.5892656693        1.3821319832
 H         -2.2310352137        2.6038573118       -2.4630728039
 H         -3.8804532200        3.9765812377       -1.2360782541
 H         -3.9051524874        3.9553091522        1.2235544265
 H         -2.2805884107        2.5615426011        2.4595739337
 Pd         1.5015353487        0.4116614281        0.0140585245
 H          1.2444690783        0.9288830757       -3.5309827021
 H         -0.4510727554        1.5484911867        3.8452541273
 H          0.8506703008        2.5390091748       -2.9153378196
 C         -1.7527258428       -3.4239647914       -1.9961260244
 C         -2.6310371491       -2.3729681017       -1.8167524886
 C         -2.1472969950       -1.0819694060       -1.7036046038
 C         -0.7928237530       -0.8545161978       -1.7761267805
 C          0.0864572917       -1.8972727437       -1.9548565977
 C         -0.3934724233       -3.1890093967       -2.0657710081
 H         -2.1289054603       -4.4306001722       -2.0780393703
 H         -3.6908330454       -2.5582088236       -1.7558349154
 H         -2.8171454217       -0.2523195445       -1.5446009790
 H          1.1448652431       -1.6906632433       -1.9849110216
 H          0.2924460963       -4.0092110400       -2.1995425062
 C         -1.7881914117       -3.4604200606        1.8793350095
 C         -2.6626417296       -2.4074082562        1.6930495239
 C         -2.1780052260       -1.1139909170        1.6178866515
 C         -0.8267115991       -0.8862883883        1.7352235644
 C          0.0486770237       -1.9309532349        1.9213370100
 C         -0.4320274768       -3.2251392624        1.9940090651
 H         -2.1648901349       -4.4688388157        1.9315556577
 H         -3.7198441144       -2.5927424668        1.5972711521
 H         -2.8442992568       -0.2824074512        1.4541357966
 H          1.1051184779       -1.7231698647        1.9880022806
 H          0.2510316949       -4.0468119846        2.1332328228
 H          0.7809002647        2.4847162896        2.9844287157
  45
        -71.82134435
 C          0.3663110451        1.4885291920        3.1522313233
 P         -0.1834700421        0.7695011530        1.5690209985
 P         -0.1379799132        0.7836039458       -1.5455649171
 C          0.4946194659        1.5359422172       -3.0814976423
 Cl         3.0246441237        0.2017530798        1.6703218112
 H         -0.4688089028        1.5541917420        3.8436739832
 H          1.2792740083        0.9117004589       -3.4994706830
 Cl         3.0223865640       -0.0864864979       -1.5528875692
 C         -1.3468624617        1.8308895011        0.6879399469
 C         -1.3261159748        1.8372318072       -0.6894441044
 C         -2.2329335681        2.6014542648       -1.3950743631
 C         -3.1602806435        3.3687583089       -0.7124832166
 C         -3.1813915781        3.3622312131        0.6689475818
 C         -2.2751739108        2.5885470904        1.3724248908
 H         -2.2155746316        2.5877514778       -2.4727065376
 H         -3.8690993453        3.9682035158       -1.2597134144
 H         -3.9067955684        3.9565249185        1.1998204350
 H         -2.2911226312        2.5647959072        2.4498593621
 Pd         1.4993139861        0.3572892540        0.0330721393
 H          0.9021283245        2.5203914893       -2.8700119930
 H          0.7707392275        2.4827596623        2.9854216685
 H         -0.3061262995        1.6300602103       -3.8093376593
 C         -1.7916630107       -3.4157092105       -2.0602497003
 C         -0.4287017781       -3.1969938050       -2.1070317024
 C          0.0655328678       -1.9128791909       -1.9725274845
 C         -0.8032585036       -0.8615962446       -1.7925583744
 C         -2.1614461033       -1.0728612893       -1.7436697975
 C         -2.6594734959       -2.3560775835       -1.8805897728
 H         -2.1790553475       -4.4163590143       -2.1611012201
 H          0.2488446755       -4.0239399470       -2.2419391028
 H          1.1266034008       -1.7187008026       -1.9878696651
 H         -2.8233431112       -0.2368280772       -1.5850007328
 H         -3.7223347398       -2.5285920977       -1.8385238830
 C         -1.7912954334       -3.4661576748        1.8898878197
 C         -0.4433026849       -3.2216725977        2.0659403501
 C          0.0356217932       -1.9265812457        1.9915511466
 C         -0.8347606135       -0.8905122524        1.7430857952
 C         -2.1777185748       -1.1273904289        1.5645091768
 C         -2.6600732393       -2.4215193000        1.6408530082
 H         -2.1658199141       -4.4753205866        1.9433612760
 H          0.2353648198       -4.0372010954        2.2541921118
 H          1.0871222535       -1.7132148027        2.1045032681
 H         -2.8387678811       -0.3025977239        1.3524080976
 H         -3.7105244330       -2.6141171040        1.4971198764
 H          1.1385546948        0.8630084308        3.5908023584
  45
        -71.81701172
 C          0.4926130174        1.8556939439        2.9958676601
 P         -0.1600639474        0.8819381471        1.5973631441
 P         -0.0720932197        0.7709314661       -1.5605205492
 C          0.6954238240        1.7450694966       -2.8982318633
 Cl         2.8432909809       -0.2190416926        1.7977574856
 H         -0.2982488470        2.0663218308        3.7100100510
 H         -0.0330018569        1.9479925794       -3.6779445262
 Cl         3.0457084053       -0.1798657819       -1.4645111749
 C         -1.3877063011        1.7908624806        0.6420444350
 C         -1.3558087237        1.7322253711       -0.7338132329
 C         -2.3111457831        2.3936654960       -1.4783643568
 C         -3.3042345680        3.1138185396       -0.8379116020
 C         -3.3397940674        3.1662082704        0.5420909476
 C         -2.3809331184        2.5002296366        1.2852213958
 H         -2.2771793486        2.3402285037       -2.5546418064
 H         -4.0517294047        3.6309592571       -1.4167197421
 H         -4.1161544047        3.7225840850        1.0409949456
 H         -2.4053128719        2.5220109333        2.3627997859
 Pd         1.4821942758        0.2657735660        0.0816395651
 H          1.5254205243        1.1906800980       -3.3269445496
 H          0.8988091939        2.7946147363        2.6306129554
 H          1.0660693097        2.6867696690       -2.5035568433
 C         -1.5907538007       -3.2582308157       -3.0108899957
 C         -2.4936502752       -2.2461410947       -2.7487860090
 C         -2.0400726951       -1.0101275987       -2.3253373080
 C         -0.6895519676       -0.7978499599       -2.1676273677
 C          0.2134803296       -1.8027063179       -2.4272288550
 C         -0.2363867152       -3.0390686454       -2.8519073179
 H         -1.9441363784       -4.2219456927       -3.3395008188
 H         -3.5502895952       -2.4192704469       -2.8705173011
 H         -2.7328223714       -0.2144675917       -2.1048281121
 H          1.2648644445       -1.6116176452       -2.2792188062
 H          0.4682525675       -3.8291468231       -3.0529262208
 C         -1.9157997892       -3.1657913803        2.6922811765
 C         -1.4117969366       -2.3642654002        3.6984626013
 C         -0.8740028024       -1.1266010313        3.3935658723
 C         -0.8469007064       -0.7013670149        2.0851650859
 C         -1.3471022652       -1.4964189988        1.0808858693
 C         -1.8838652873       -2.7344860202        1.3810210674
 H         -2.3322610226       -4.1308066606        2.9308264514
 H         -1.4347195565       -2.7035352510        4.7210626652
 H         -0.4730328911       -0.4950017426        4.1691952628
 H         -1.3011322198       -1.1475742899        0.0637413182
 H         -2.2702654798       -3.3591035097        0.5925411185
 H          1.2828764013        1.3015880183        3.4943931736
