111
-148.54786076
P         -1.68846        2.70159        1.01048
P         -0.46321       -0.16292        0.51420
C         -1.22681        1.66330        2.43044
C         -0.77158        0.38047        2.20563
C         -0.57342        4.16262        0.84010
C          0.14520        4.12644       -0.49191
C         -1.28314        2.15009        3.72111
H         -1.57937        3.17076        3.89336
C         -0.92063        1.33942        4.78286
H         -0.96987        1.71995        5.79006
C         -0.48710        0.04776        4.55409
H         -0.19876       -0.58090        5.38043
C         -0.39955       -0.42895        3.25874
H         -0.02165       -1.41908        3.05741
Pd        -1.71920        1.26104       -0.80568
Cl        -3.25643        2.55666       -1.79024
Cl        -1.46375       -0.26969       -2.43540
C         -1.53245        5.36072        1.00717
C         -3.33806        3.54419        1.12530
H         -0.57259        4.13179       -1.31485
H          0.80141        4.99102       -0.61736
H          0.75449        3.22510       -0.59300
H         -1.19421        6.19145        0.37083
H         -1.48107        5.73983        2.03849
H         -3.98948        3.04189        0.39771
C         -3.00337        4.98069        0.67282
C         -3.95850        3.47012        2.50425
H          0.14302        4.10921        1.67044
H         -3.70371        5.68767        1.14139
H         -3.16522        5.07600       -0.41116
H         -4.02340        2.43851        2.85699
H         -3.36918        4.03708        3.22544
H         -4.96602        3.89240        2.51115
C         -0.55417       -4.68168       -0.03289
C         -1.72279       -3.92310       -0.30101
C         -1.68402       -2.55541       -0.08303
C         -0.52439       -1.93742        0.30373
C          0.63555       -2.65075        0.46074
C          0.66522       -4.02095        0.26290
O         -0.61161       -6.10088       -0.03135
C         -3.01897       -4.56194       -0.82430
H         -2.55986       -1.94694       -0.22857
H          1.52824       -2.11425        0.73400
C          2.00624       -4.76298        0.37617
C          3.66379        1.29966       -0.74571
C          3.19267        1.57697        0.56345
C          1.94176        1.10547        0.92370
C          1.14881        0.44873        0.01958
C          1.55082        0.28661       -1.27929
C          2.78808        0.73375       -1.70704
O          5.02073        1.55115       -1.08089
C          4.03231        2.34064        1.59892
H          1.57361        1.23563        1.92563
H          0.86634       -0.18469       -1.96217
C          3.16307        0.58053       -3.18884
C         -2.71484       -5.78175       -1.71321
C         -3.89844       -4.97918        0.36364
C         -3.80687       -3.55678       -1.69561
C          3.17684       -3.83819       -0.03190
C          2.21796       -5.21203        1.82966
C          2.04697       -5.97950       -0.56634
C         -0.93618       -6.66576        1.23247
H         -3.62881       -6.19315       -2.14081
H         -2.05227       -5.50340       -2.53206
H         -2.23102       -6.57407       -1.14735
H         -4.14414       -4.11678        0.98285
H         -4.83147       -5.42561        0.02070
H         -3.39037       -5.70515        0.99395
H         -4.65293       -4.04365       -2.17995
H         -4.20738       -2.73604       -1.10266
H         -3.17049       -3.13751       -2.47458
H          2.99876       -3.39725       -1.01238
H          3.32390       -3.03153        0.68480
H          4.11181       -4.39587       -0.08080
H          3.16751       -5.73460        1.94259
H          2.22267       -4.35379        2.50127
H          1.42506       -5.88167        2.15435
H          3.02102       -6.46710       -0.53547
H          1.29986       -6.71972       -0.29080
H          1.85222       -5.67486       -1.59409
H         -0.12825       -7.32046        1.55864
H         -1.08885       -5.87963        1.97299
H         -1.84357       -7.26287        1.14343
C          5.88483        0.44519       -0.85143
C          4.87789        1.34075        2.40174
C          4.94214        3.37929        0.91806
C          3.12162        3.11602        2.57741
C          1.90467        0.68994       -4.08058
C          4.12698        1.69390       -3.63703
C          3.80426       -0.79793       -3.40932
H          4.23992        0.61972        2.91242
H          5.55166        0.78550        1.75340
H          5.47883        1.85217        3.15325
H          5.48740        3.96664        1.65642
H          5.67468        2.90202        0.27185
H          4.35330        4.06337        0.30780
H          3.71490        3.74168        3.24385
H          2.43662        3.76505        2.03363
H          2.53644        2.44602        3.20542
H          1.23656       -0.15883       -3.94347
H          1.34982        1.60097       -3.85780
H          2.17816        0.71367       -5.13509
H          4.34010        1.62212       -4.70328
H          3.69584        2.67538       -3.44247
H          5.07471        1.63547       -3.10779
H          4.70388       -0.91474       -2.80950
H          4.07538       -0.93979       -4.45514
H          3.11352       -1.59283       -3.12889
H          6.35411        0.14612       -1.78850
H          6.67052        0.73441       -0.15364
H          5.32542       -0.39626       -0.44042
