87
-129.18294222
P         -1.64258       -0.44800        0.00229
P          1.59657        0.35368       -0.15115
C         -1.43382        0.81629       -1.27812
C          1.37970       -0.72621       -1.56993
C         -0.48497        0.75572       -2.29783
C         -0.31411        1.87600       -3.13426
C         -1.11536        2.98967       -2.95299
C         -2.06192        3.02674       -1.95343
C         -2.20845        1.94082       -1.11297
C          2.21855       -1.79926       -1.74485
C          2.06949       -2.62192       -2.84387
C          1.07632       -2.36033       -3.76429
C          0.21640       -1.28630       -3.60365
C          0.37455       -0.44287       -2.48552
Cl         1.29825        1.53146        2.81457
Cl        -1.31598       -0.36764        3.25250
H         -2.67323        3.90372       -1.81686
H         -2.92828        1.97498       -0.31157
H          2.99930       -1.98864       -1.02722
H          2.72667       -3.46496       -2.98083
H         -0.98167        3.84023       -3.59979
H          0.95874       -2.99817       -4.62379
C         -0.57072       -4.74582       -1.01430
C         -1.34341       -4.01732       -1.90826
C         -1.66456       -2.70233       -1.59052
C         -1.22929       -2.14562       -0.41108
C         -0.50062       -2.88920        0.48868
C         -0.15727       -4.19153        0.18099
H         -0.30299       -5.75930       -1.26022
C         -1.78558       -4.62245       -3.19397
H         -2.24677       -2.10761       -2.27436
H         -0.24012       -2.45967        1.44264
H          0.42292       -4.77526        0.87679
C         -5.85359       -0.23866        1.72029
C         -5.52870       -1.21301        0.79734
C         -4.24717       -1.27533        0.28272
C         -3.30036       -0.36726        0.69658
C         -3.62363        0.60630        1.61341
C         -4.90822        0.68841        2.13671
H         -6.84839       -0.19368        2.12975
H         -6.27161       -1.92659        0.48056
H         -3.97857       -2.03266       -0.43576
H         -2.86792        1.29946        1.94429
C         -5.23995        1.71884        3.15790
C          4.92110       -1.25134        2.51939
C          5.03024        0.01528        1.97986
C          4.03123        0.50393        1.15934
C          2.93287       -0.27608        0.88473
C          2.82026       -1.53628        1.42489
C          3.81829       -2.04801        2.24437
H          5.69359       -1.63047        3.16653
H          5.88953        0.62588        2.20392
H          4.09631        1.49580        0.74311
H          1.95021       -2.13190        1.20754
C          3.67646       -3.40061        2.84839
C          2.46158        4.57161       -1.59363
C          3.22348        3.51537       -2.05377
C          2.96715        2.23301       -1.60474
C          1.95997        2.02314       -0.69249
C          1.20396        3.07306       -0.22626
C          1.43587        4.36513       -0.68129
H          2.65855        5.57082       -1.94292
H          4.01306        3.68846       -2.76649
H          3.53930        1.39301       -1.96660
H          0.42140        2.89032        0.49072
C          0.61902        5.50017       -0.17297
Pd        -0.02668        0.25385        1.52961
C          0.72123        1.89923       -4.20526
C         -0.84885       -1.04420       -4.61568
H          1.25510        2.85061       -4.20731
H          1.46124        1.11077       -4.06465
H          0.26779        1.76708       -5.18828
H         -1.60424       -0.35158       -4.24273
H         -0.42787       -0.62423       -5.52995
H         -1.35605       -1.97362       -4.87792
H         -2.13345       -5.64564       -3.04495
H         -2.60534       -4.05525       -3.63715
H         -0.96599       -4.64709       -3.91326
H         -4.71971        2.65550        2.95223
H         -6.31005        1.93019        3.17445
H         -4.94653        1.38323        4.15351
H          3.10997       -3.35004        3.77927
H          3.15295       -4.07866        2.17263
H          4.65061       -3.83909        3.06928
H          1.04246        5.89880        0.74990
H          0.57237        6.31065       -0.90169
H         -0.40402        5.18318        0.03541
