111
-148.55441519
P         -1.64888        2.81745       -0.01800
P         -0.53470       -0.10417        0.49658
C         -1.66631        2.11744        1.65986
C         -1.25183        0.81854        1.86729
C         -0.43851        4.21243       -0.11272
C          0.69136        3.87500       -1.06253
C         -2.06184        2.88903        2.73406
H         -2.34435        3.91673        2.57529
C         -2.06829        2.34743        4.00798
H         -2.38165        2.94911        4.84549
C         -1.66754        1.04038        4.20875
H         -1.66702        0.62106        5.20139
C         -1.24665        0.27632        3.13515
H         -0.89433       -0.73334        3.27731
Pd        -1.27120        0.99060       -1.39590
Cl        -2.30171        2.16391       -3.00348
Cl        -0.77704       -0.86291       -2.56558
C         -1.30255        5.40994       -0.55718
C         -3.21285        3.71862       -0.43669
H          1.23843        2.98880       -0.73406
H          0.30455        3.66645       -2.06213
H          1.40319        4.69961       -1.14627
H         -1.17459        5.55232       -1.63897
H         -0.93666        6.33874       -0.09419
H         -3.39720        3.52315       -1.50069
C         -2.81067        5.19177       -0.24417
C         -4.39611        3.25860        0.38822
H         -0.06606        4.36021        0.90939
H         -3.02031        5.48625        0.79319
H         -3.44032        5.84457       -0.86803
H         -4.23540        3.44705        1.44983
H         -5.31020        3.78204        0.09895
H         -4.56758        2.18642        0.26854
C         -0.91043       -4.63405        0.67412
C          0.23122       -3.99705        1.22433
C          0.31013       -2.61629        1.14971
C         -0.71799       -1.87677        0.62611
C         -1.87018       -2.47880        0.19443
C         -2.01362       -3.85622        0.23765
O         -0.93214       -6.04614        0.52291
C          1.39581       -4.77685        1.85440
H          1.19205       -2.09603        1.48225
H         -2.65130       -1.85408       -0.20375
C         -3.33430       -4.48406       -0.23434
C          3.77908        1.24580       -0.05313
C          3.22215        0.28195       -0.93221
C          1.90688       -0.10094       -0.73478
C          1.18587        0.36770        0.33034
C          1.75000        1.22249        1.24021
C          3.05793        1.65372        1.09836
O          5.03780        1.83418       -0.34779
C          3.99549       -0.31336       -2.11816
H          1.40443       -0.73914       -1.44067
H          1.14359        1.56904        2.05809
C          3.65611        2.58562        2.16348
C          2.43565       -5.09942        0.77040
C          2.07952       -3.93715        2.95767
C          0.90172       -6.07358        2.52092
C         -4.51975       -3.53019        0.03740
C         -3.25618       -4.74925       -1.74562
C         -3.63094       -5.79218        0.52127
C         -0.40800       -6.50278       -0.71791
H          3.28150       -5.64341        1.18995
H          2.00474       -5.70691       -0.02176
H          2.81461       -4.18410        0.31647
H          1.34810       -3.58080        3.68260
H          2.81945       -4.53148        3.49330
H          2.60142       -3.07533        2.54436
H          1.71848       -6.59243        3.02212
H          0.13316       -5.85530        3.26161
H          0.47634       -6.75824        1.79160
H         -4.53371       -3.21682        1.08096
H         -4.47308       -2.64022       -0.58831
H         -5.46848       -4.02161       -0.17716
H         -3.07026       -3.82328       -2.28936
H         -2.45016       -5.43894       -1.98389
H         -4.18695       -5.17808       -2.11591
H         -3.64440       -5.61924        1.59685
H         -4.59829       -6.20155        0.23120
H         -2.87898       -6.54960        0.31513
H         -1.17064       -7.07088       -1.25032
H         -0.08983       -5.65787       -1.33007
H          0.44148       -7.16107       -0.53683
C          4.95733        2.99864       -1.16074
C          3.75512        0.55240       -3.36431
C          5.50141       -0.40416       -1.81293
C          3.50977       -1.75107       -2.41464
C          3.38120        4.04636        1.77510
C          3.01680        2.31695        3.54510
C          5.17000        2.35199        2.31572
H          4.10004        1.57190       -3.20917
H          4.27982        0.14688       -4.22890
H          2.69271        0.59546       -3.60354
H          5.93745        0.58052       -1.66561
H          5.67457       -0.98447       -0.90724
H          6.03876       -0.88330       -2.63095
H          4.13885       -2.22445       -3.16806
H          3.54521       -2.36475       -1.51500
H          2.49032       -1.76274       -2.79704
H          3.81976        4.28798        0.81007
H          2.30973        4.23167        1.70793
H          3.79553        4.73144        2.51428
H          3.52783        2.88230        4.32409
H          1.96948        2.61472        3.57002
H          3.07992        1.25998        3.80258
H          5.37536        1.30799        2.54996
H          5.58311        2.96683        3.11497
H          5.70360        2.59965        1.40149
H          5.40541        3.84223       -0.63596
H          5.51266        2.83981       -2.08491
H          3.91756        3.22778       -1.39690
