58
-89.86936506
P          1.69163        0.23000        0.77640
C          3.03211        1.38077        0.46173
C          4.29013        0.91265        0.15869
C          5.31516        1.80783       -0.08872
C          5.07094        3.16587       -0.03065
C          3.80665        3.63049        0.27435
C          2.78342        2.73267        0.52224
H          1.78839        3.07972        0.75332
H          4.46383       -0.15029        0.11223
C          2.13292       -1.42932        0.24456
C          2.34491       -1.63071       -1.10085
C          2.65775       -2.89275       -1.57038
C          2.75753       -3.94716       -0.68465
C          2.54810       -3.74116        0.66495
C          2.23511       -2.47716        1.13140
H          2.07073       -2.30911        2.18267
H          2.24856       -0.79448       -1.77587
C          1.33591        0.32717        2.57782
C          0.02792       -0.30949        3.01442
C         -1.20552        0.43777        2.52769
P         -1.66772       -0.01637        0.80956
C         -1.81152       -1.80756        0.73717
C         -2.74683       -2.43049        1.53221
C         -2.85468       -3.80996        1.51706
C         -2.01922       -4.55682        0.71022
C         -1.07799       -3.92834       -0.08016
C         -0.97592       -2.54975       -0.06487
H         -0.23384       -2.05405       -0.66689
H         -3.38818       -1.83510        2.16301
C         -3.23621        0.77036        0.41775
C         -4.25814        0.03694       -0.14063
C         -5.45169        0.65502       -0.46670
C         -5.61121        2.00697       -0.23559
C         -4.58009        2.74155        0.31581
C         -3.38710        2.12024        0.64026
H         -2.56812        2.68585        1.05564
H         -4.11471       -1.01439       -0.33010
Pd        -0.03559        0.67635       -0.70044
Cl         1.45261        1.47780       -2.17917
Cl        -1.78343        0.97089       -2.08866
H         -2.08096        0.20428        3.13881
H         -1.05966        1.51794        2.57877
H         -0.01685       -1.35042        2.66707
H          0.00827       -0.37013        4.11399
H          2.19233       -0.12577        3.08290
H          1.34638        1.38652        2.84181
H          6.30093        1.44523       -0.32962
H          3.61496        4.69012        0.31500
H          2.81896       -3.05168       -2.62387
H          2.62506       -4.56536        1.35492
H         -3.58790       -4.29977        2.13652
H         -0.41817       -4.50939       -0.70321
H         -6.25269        0.08291       -0.90528
H         -4.70111        3.79843        0.48792
H          5.86794        3.86452       -0.22654
H          2.99890       -4.93304       -1.04724
H         -2.09998       -5.63156        0.69950
H         -6.53967        2.49081       -0.49168
