87
-129.17990216
P         -1.73839       -0.45500        0.07596
P          1.57947        0.10948       -0.11102
C         -1.43040        0.83843       -1.14839
C          1.26642       -0.90335       -1.56171
C         -0.50652        0.73527       -2.18642
C         -0.24549        1.87348       -2.97324
C         -0.93357        3.04807       -2.72116
C         -1.84373        3.13179       -1.69020
C         -2.07680        2.02601       -0.89567
C          2.04529       -2.00506       -1.81768
C          1.81154       -2.76965       -2.94374
C          0.79581       -2.42122       -3.80953
C          0.00301       -1.31021       -3.57288
C          0.25224       -0.52110       -2.43222
Cl         1.30913        1.76801        2.62190
Cl        -1.69646        1.17946        2.88728
H         -2.35517        4.05910       -1.49069
H         -2.74566        2.09248       -0.05075
H          2.84675       -2.26022       -1.14483
H          2.41936       -3.63687       -3.14330
H         -0.73228        3.91168       -3.33215
H          0.60958       -3.01682       -4.68704
C         -0.66952       -4.74308       -0.96624
C         -1.51405       -4.03432       -1.80958
C         -1.83242       -2.72146       -1.47981
C         -1.31502       -2.14592       -0.34361
C         -0.51127       -2.86749        0.50780
C         -0.17680       -4.17016        0.18976
H         -0.40683       -5.75572       -1.22094
C         -2.03734       -4.65875       -3.05496
H         -2.47900       -2.14358       -2.11902
H         -0.17274       -2.41695        1.42728
H          0.45953       -4.74036        0.84670
C         -6.08026       -0.51563        1.42038
C         -5.76630       -0.14203        0.12837
C         -4.44541       -0.10999       -0.27848
C         -3.45159       -0.44627        0.61124
C         -3.76187       -0.83557        1.89285
C         -5.08353       -0.86220        2.32251
H         -7.10846       -0.54398        1.73861
H         -6.54938        0.12208       -0.56334
H         -4.18412        0.16952       -1.28695
H         -2.97087       -1.11383        2.56972
C         -5.41546       -1.28790        3.70941
C          4.72101       -1.72298        2.64111
C          3.68766       -2.50948        2.17242
C          2.73240       -1.96610        1.33543
C          2.82032       -0.64534        0.96170
C          3.84708        0.14011        1.43261
C          4.81017       -0.38431        2.28631
H          5.46781       -2.14444        3.29223
H          3.62415       -3.54616        2.46024
H          1.92238       -2.57103        0.96673
H          3.89675        1.17726        1.14649
C          5.92668        0.46809        2.77787
C          3.06875        4.13327       -1.61420
C          3.72819        2.97173       -1.96561
C          3.27912        1.75307       -1.49104
C          2.17877        1.70869       -0.66735
C          1.52072        2.86384       -0.31549
C          1.96040        4.09702       -0.77962
H          3.40995        5.08256       -1.99065
H          4.58753        3.01319       -2.61456
H          3.77239        0.83412       -1.76708
H          0.65083        2.81115        0.31682
C          1.22489        5.34139       -0.42681
Pd        -0.09693        0.39404        1.50620
C          0.77287        1.85108       -4.06036
C         -1.08634       -0.96864       -4.52854
H          1.38296        2.75528       -4.03844
H          1.44822        1.00095       -3.95882
H          0.29634        1.79035       -5.03946
H         -0.67989       -0.53158       -5.44139
H         -1.65370       -1.85802       -4.80637
H         -1.78713       -0.25397       -4.09528
H         -1.25086       -4.74319       -3.80612
H         -2.42333       -5.65977       -2.85714
H         -2.84868       -4.06877       -3.48363
H         -6.38942       -0.90593        4.01841
H         -5.44025       -2.37584        3.78542
H         -4.67428       -0.91707        4.41895
H          6.74303        0.49257        2.05465
H          5.59195        1.49322        2.94332
H          6.32358        0.09336        3.72237
H          0.73228        5.24412        0.54177
H          1.90053        6.19600       -0.37091
H          0.45979        5.56313       -1.17212
