111
-148.54723464
P         -2.31467        2.32071        0.66728
P          0.09745        0.23893        0.48374
C         -1.34856        1.91626        2.14437
C         -0.31772        1.00580        2.06314
C         -2.48617        4.15414        0.49769
C         -1.96832        4.62184       -0.84443
C         -1.64730        2.51247        3.35265
H         -2.44030        3.24062        3.40498
C         -0.92557        2.17594        4.48487
H         -1.15980        2.63966        5.42917
C          0.08892        1.24142        4.40683
H          0.64468        0.97131        5.28967
C          0.39171        0.65255        3.19224
H          1.17130       -0.08982        3.11816
Pd        -1.54203        0.94043       -1.01336
Cl        -2.90192        1.96946       -2.46461
Cl        -0.75492       -0.61632       -2.43405
C         -3.99628        4.39053        0.70898
C         -4.10047        1.82900        0.75735
H         -2.03779        5.70759       -0.94573
H         -0.92455        4.33312       -0.99033
H         -2.54840        4.17839       -1.65510
H         -4.32125        5.24731        0.10092
H         -4.18781        4.68008        1.75266
H         -4.24815        1.04990       -0.00309
C         -4.83425        3.12736        0.36447
C         -4.47101        1.30129        2.12691
H         -1.89721        4.60036        1.31073
H         -5.81341        3.16245        0.86400
H         -5.05106        3.11983       -0.71398
H         -4.35735        2.07838        2.88406
H         -5.50947        0.96320        2.15837
H         -3.83368        0.46284        2.41658
C         -0.92736       -4.18646        0.74415
C         -1.93027       -3.19570        0.91712
C         -1.54849       -1.86511        0.87105
C         -0.25805       -1.50964        0.57654
C          0.68624       -2.45796        0.28430
C          0.37491       -3.80720        0.32106
O         -1.20658       -5.54099        1.06014
C         -3.42400       -3.50637        1.11170
H         -2.26476       -1.08285        1.06136
H          1.67714       -2.13074        0.02156
C          1.45171       -4.81261       -0.12142
C          4.30960        1.19289       -1.00055
C          3.37793        0.54554       -1.85036
C          2.10909        0.29667       -1.35809
C          1.76668        0.60487       -0.06795
C          2.69328        1.14893        0.78334
C          3.98505        1.41749        0.36179
O          5.55260        1.64224       -1.52110
C          3.70913        0.15123       -3.29862
H          1.34952       -0.13042       -1.98763
H          2.39004        1.37661        1.78883
C          5.00233        1.96631        1.37550
C         -3.76890       -4.96179        0.75183
C         -3.82054       -3.22744        2.57061
C         -4.25986       -2.60072        0.17903
C          2.15257       -4.29193       -1.39607
C          2.49776       -4.96978        0.99389
C          0.85328       -6.18738       -0.46701
C         -0.96769       -5.85050        2.42277
H         -4.84359       -5.13510        0.80219
H         -3.43283       -5.19732       -0.25737
H         -3.29062       -5.66069        1.43391
H         -3.26778       -3.86514        3.25773
H         -3.61352       -2.19203        2.83918
H         -4.88373       -3.40852        2.72639
H         -3.93370       -2.70873       -0.85503
H         -5.31670       -2.86151        0.22802
H         -4.17372       -1.55019        0.45041
H          1.42142       -4.06014       -2.17012
H          2.73312       -3.39310       -1.19624
H          2.84019       -5.03753       -1.79448
H          3.29027       -5.65335        0.69033
H          2.95530       -4.01065        1.23492
H          2.04857       -5.36177        1.90402
H          0.06188       -6.08591       -1.20883
H          1.61301       -6.85743       -0.86870
H          0.42691       -6.66352        0.41294
H         -1.58281       -5.22051        3.06306
H         -1.21445       -6.89714        2.60209
H          0.07956       -5.68133        2.66650
C          5.52757        2.97306       -2.02219
C          5.18797       -0.25284       -3.43730
C          2.86682       -1.06591       -3.74407
C          3.38886        1.32913       -4.23133
C          4.68301        1.45746        2.80010
C          6.42896        1.49287        1.04230
C          4.93997        3.50123        1.37997
H          5.43034       -1.06216       -2.74931
H          5.40863       -0.59058       -4.44958
H          5.84986        0.58100       -3.21734
H          1.80899       -0.81957       -3.82168
H          3.18498       -1.41822       -4.72493
H          2.97730       -1.89064       -3.04181
H          3.97390        2.20824       -3.97315
H          3.60333        1.07498       -5.26901
H          2.33550        1.59957       -4.16084
H          5.47365        1.73617        3.49641
H          3.75672        1.88319        3.18309
H          4.59364        0.37147        2.81291
H          7.13958        1.82827        1.79731
H          6.47110        0.40517        0.99620
H          6.76243        1.87998        0.08286
H          5.64485        3.91851        2.09864
H          3.94122        3.84518        1.64796
H          5.17799        3.90916        0.40070
H          4.53067        3.40215       -1.91407
H          6.24752        3.58324       -1.47713
H          5.81163        2.97267       -3.07440
