58
-89.86416324
P          1.72797        0.33081        0.73067
C          2.98703        1.57681        0.40525
C          4.26052        1.38623        0.89407
C          5.23137        2.34970        0.68589
C          4.91719        3.50597       -0.00000
C          3.63418        3.70403       -0.46974
C          2.66619        2.73887       -0.25902
H          1.65991        2.88571       -0.61698
H          4.48835        0.49001        1.44945
C          2.24936       -1.32249        0.24040
C          3.48410       -1.55436       -0.32217
C          3.83723       -2.83501       -0.70705
C          2.94724       -3.87692       -0.53514
C          1.70261       -3.63895        0.01217
C          1.35591       -2.35726        0.39724
H          0.36866       -2.15147        0.77191
H          4.16119       -0.73201       -0.47956
C          1.45398        0.40405        2.54830
C          0.21585       -0.30668        3.06086
C         -1.08539        0.35271        2.63041
P         -1.61225       -0.04185        0.91317
C         -1.95667       -1.79856        0.71974
C         -2.04702       -2.63864        1.80709
C         -2.27412       -3.98948        1.61513
C         -2.41489       -4.49129        0.33641
C         -2.33648       -3.64490       -0.75110
C         -2.10884       -2.29609       -0.55436
H         -2.04973       -1.61873       -1.39047
H         -1.94485       -2.24080        2.80317
C         -3.08947        0.92945        0.60678
C         -4.31420        0.31000        0.50936
C         -5.44748        1.06381        0.26308
C         -5.34349        2.43298        0.11495
C         -4.11141        3.04948        0.21199
C         -2.97950        2.29304        0.45914
H         -2.00888        2.75857        0.52987
H         -4.37731       -0.76050        0.62032
Pd        -0.06431        0.45105       -0.75046
Cl         1.38211        1.03520       -2.36374
Cl        -1.82983        0.51493       -2.14778
H         -1.91877        0.05022        3.26934
H         -1.01189        1.43886        2.71017
H          0.22871       -1.35580        2.74260
H          0.25607       -0.34373        4.16077
H          2.36072       -0.00291        3.00260
H          1.41969        1.46287        2.81304
H          6.22993        2.19856        1.06188
H          3.38619        4.60816       -1.00109
H          4.80385       -3.01754       -1.14711
H          0.99618       -4.44445        0.12765
H         -2.34101       -4.64982        2.46416
H         -2.45066       -4.03267       -1.74999
H         -6.40823        0.58227        0.18341
H         -4.02985        4.11721        0.09154
H          5.67286        4.25666       -0.16486
H          3.22012       -4.87440       -0.83889
H         -2.59062       -5.54421        0.18738
H         -6.22533        3.02129       -0.07989
