105
-153.05839815
Cl         0.28432        3.45323        1.89633
Pd        -0.13222        1.97083        0.26717
P         -0.73579        0.33246       -1.35586
N          0.09215       -1.09173       -2.01667
C          0.16497       -2.42607       -1.62018
C         -0.15959       -2.91937       -0.32481
C          0.16391       -4.25427        0.00564
C          0.02480       -4.70908        1.44099
C          0.84009       -5.96800        1.76961
C          0.59260       -7.05414        0.71890
C          0.99982       -6.56760       -0.68161
C          0.66261       -5.12323       -0.96713
C          0.89042       -4.64092       -2.24864
C          0.66714       -3.32534       -2.56102
H          0.89690       -2.96391       -3.54854
H          1.28100       -5.31175       -2.99528
H          2.08004       -6.70125       -0.81560
H          1.12446       -7.97922        0.98258
H          1.90762       -5.71506        1.78669
H          0.32056       -3.88592        2.10388
C         -0.74641       -2.06872        0.74639
C          0.07923       -1.09293        1.36027
C         -0.36993       -0.43256        2.50320
C         -1.61250       -0.70216        3.01414
C         -2.45737       -1.63019        2.41206
C         -3.80604       -1.87415        3.04888
C         -4.75062       -2.79009        2.24968
C         -3.98037       -3.91043        1.54339
C         -2.93343       -3.31293        0.59386
C         -2.02550       -2.32009        1.27502
H         -2.34531       -4.10390        0.11492
H         -4.66408       -4.58242        1.00560
H         -5.28558       -2.19548        1.49956
H         -4.28608       -0.90347        3.22720
H         -1.95400       -0.18163        3.89278
H          0.25846        0.30987        2.95945
N          1.24003       -0.73009        0.68747
P          1.83014        0.86866        0.94466
C          3.02011        1.29180       -0.32446
C          3.97663        2.24595       -0.07227
C          4.87369        2.59566       -1.06547
C          4.81021        1.99883       -2.31774
C          3.83976        1.03368       -2.54929
C          2.94450        0.68480       -1.55612
H          2.15932       -0.02470       -1.75898
H          3.78362        0.56375       -3.51643
C          5.78547        2.36177       -3.38297
H          5.62884        3.33859       -0.87337
H          4.01410        2.71516        0.89819
C          2.62559        0.86377        2.55390
C          2.47441        1.89099        3.45355
C          3.11385        1.83682        4.67679
C          3.91564        0.75241        5.00661
C          4.04784       -0.28257        4.09047
C          3.40595       -0.22409        2.86568
H          3.49964       -1.02676        2.15049
H          4.65404       -1.13588        4.34232
C          4.58370        0.67955        6.33553
H          2.99048        2.63682        5.38671
H          1.84296        2.72437        3.19917
H          1.08584       -0.82924       -0.31384
H          0.22553       -0.90627       -3.00373
C         -0.69844        1.50530       -2.72920
C         -1.79988        1.67807       -3.53368
C         -1.76110        2.58676       -4.57495
C         -0.61861        3.33727       -4.81568
C          0.48642        3.14547       -3.99885
C          0.44270        2.23556       -2.95930
H          1.29779        2.10133       -2.32055
H          1.38174        3.71547       -4.17996
C         -0.56442        4.30351       -5.94741
H         -2.62296        2.72157       -5.20598
H         -2.69482        1.11115       -3.34041
C         -2.46193       -0.09595       -1.11325
C         -3.02374       -0.97427       -2.00971
C         -4.36885       -1.28687       -1.92047
C         -5.15572       -0.73319       -0.92041
C         -4.56971        0.14882       -0.02207
C         -3.22840        0.46814       -0.12110
H         -2.78156        1.16569        0.56754
H         -5.17207        0.59147        0.75262
C         -6.60360       -1.06979       -0.83234
H         -4.81438       -1.96880       -2.62445
H         -2.40487       -1.41134       -2.77759
Cl        -1.80874        3.21121       -0.57517
H          0.53121       -7.19458       -1.45093
H          0.60674       -6.33693        2.77845
H         -0.47253       -7.31831        0.71793
H         -1.03153       -4.89643        1.66024
H         -3.47841       -4.53481        2.29287
H         -3.44263       -2.80425       -0.23003
H         -3.63960       -2.30243        4.04462
H         -5.53166       -3.20768        2.90049
H          6.13713        3.38740       -3.26274
H          6.65395        1.70238       -3.35396
H          5.33421        2.28126       -4.37295
H          5.51065        0.10710        6.27959
H          4.83193        1.67498        6.70644
H          3.93497        0.19903        7.06914
H          0.03178        5.17916       -5.68672
H         -0.11843        3.84239       -6.82975
H         -1.56236        4.65178       -6.21733
H         -7.15669       -0.61888       -1.65738
H         -6.75592       -2.14933       -0.87456
H         -7.04050       -0.70879        0.09975
