111
-148.55295351
P         -2.44374        2.16696        1.16497
P          0.07733        0.33947        0.58292
C         -1.38821        1.61334        2.53492
C         -0.27115        0.85143        2.27145
C         -3.07834        3.87467        1.50302
C         -2.75193        4.82634        0.37354
C         -1.69775        1.94766        3.83820
H         -2.57694        2.53627        4.04300
C         -0.88407        1.51783        4.87242
H         -1.12629        1.77810        5.88988
C          0.23632        0.75530        4.60312
H          0.86842        0.41903        5.40845
C          0.54260        0.41840        3.29686
H          1.40589       -0.18686        3.06787
Pd        -1.31599        1.57795       -0.77582
Cl        -2.91942        2.66564       -1.90540
Cl        -0.12392        0.98867       -2.58731
C         -4.58948        3.64976        1.72035
C         -4.03936        1.23815        1.04280
H         -3.08481        5.84288        0.59609
H         -1.67773        4.85641        0.17649
H         -3.24735        4.51473       -0.54666
H         -5.14530        4.53081        1.36784
H         -4.80640        3.57540        2.79610
H         -4.01427        0.68762        0.09223
C         -5.09262        2.36418        1.00532
C         -4.19671        0.28112        2.20410
H         -2.59136        4.21039        2.42858
H         -6.02859        2.00794        1.45991
H         -5.34188        2.60485       -0.03873
H         -3.36876       -0.43015        2.24292
H         -4.20918        0.82306        3.15146
H         -5.12818       -0.28584        2.13468
C         -1.06657       -4.00828       -0.13606
C         -1.26245       -3.44700        1.15473
C         -0.90514       -2.12373        1.35561
C         -0.45725       -1.34894        0.31779
C         -0.40129       -1.84898       -0.95600
C         -0.73235       -3.16436       -1.22796
O         -1.12223       -5.41410       -0.31778
C         -1.85162       -4.22396        2.34422
H         -0.95758       -1.68767        2.33799
H         -0.09139       -1.18673       -1.74623
C         -0.71661       -3.61598       -2.69755
C          4.39087        0.68209       -0.81615
C          3.92699       -0.52823       -0.23988
C          2.61005       -0.58796        0.18395
C          1.79577        0.51267        0.12154
C          2.27231        1.71612       -0.32682
C          3.57772        1.84395       -0.77268
O          5.64780        0.71861       -1.47638
C          4.80288       -1.78475       -0.11817
H          2.18993       -1.51141        0.54430
H          1.59544        2.55262       -0.35516
C          4.06594        3.21616       -1.26164
C         -2.54334       -5.52657        1.90568
C         -0.73346       -4.54732        3.34873
C         -2.92311       -3.35893        3.04407
C          0.73962       -3.72320       -3.18072
C         -1.42927       -4.96339       -2.90446
C         -1.46016       -2.57322       -3.56216
C          0.13314       -6.04293       -0.11906
H         -1.82767       -6.23313        1.49202
H         -3.03686       -6.01220        2.74720
H         -3.29321       -5.32483        1.14155
H         -1.12945       -5.07794        4.21424
H          0.03465       -5.17115        2.89587
H         -0.25415       -3.63571        3.70443
H         -3.68851       -3.04692        2.33405
H         -3.41298       -3.91729        3.84140
H         -2.49211       -2.46567        3.49307
H          0.78162       -4.02010       -4.22827
H          1.25359       -2.76742       -3.08226
H          1.29346       -4.45917       -2.60088
H         -1.49036       -5.21719       -3.96248
H         -0.90033       -5.77029       -2.40294
H         -2.44168       -4.92794       -2.50371
H         -1.53239       -2.90698       -4.59688
H         -2.47123       -2.41462       -3.18844
H         -0.94949       -1.61184       -3.56774
H          0.03187       -7.11316       -0.30032
H          0.87155       -5.62952       -0.80424
H          0.47464       -5.88214        0.90205
C          5.58384        0.38253       -2.85701
C          4.38589       -2.62072        1.11374
C          4.62750       -2.64847       -1.37678
C          6.28488       -1.41496        0.07289
C          5.57592        3.39028       -1.01819
C          3.74857        3.36003       -2.75812
C          3.35297        4.35388       -0.49588
H          4.37417       -2.00564        2.01318
H          3.39860       -3.06267        0.98729
H          5.08390       -3.44127        1.27842
H          3.58563       -2.94417       -1.49815
H          4.92330       -2.10657       -2.27190
H          5.23043       -3.55414       -1.31628
H          6.67847       -0.88948       -0.79338
H          6.40978       -0.76792        0.94048
H          6.89488       -2.30539        0.22296
H          5.90704        4.38727       -1.30776
H          5.81372        3.24626        0.03520
H          6.15634        2.67224       -1.59190
H          2.67778        3.26137       -2.93533
H          4.06557        4.33262       -3.13348
H          4.25113        2.59374       -3.34323
H          2.29389        4.40556       -0.74391
H          3.78710        5.32105       -0.74837
H          3.44781        4.21520        0.58076
H          5.96550        1.21114       -3.45331
H          6.20591       -0.49101       -3.05121
H          4.55475        0.16831       -3.14852
