111
-148.55263678
P         -2.34530        2.26109        0.98737
P         -0.00781        0.17484        0.57868
C         -1.43512        1.64132        2.42588
C         -0.38895        0.76598        2.23650
C         -2.69413        4.07004        1.17210
C         -1.77191        4.91651        0.32202
C         -1.77600        2.04023        3.70260
H         -2.60525        2.71314        3.84752
C         -1.05903        1.56420        4.78690
H         -1.32457        1.87450        5.78432
C         -0.00434        0.69277        4.59277
H          0.55345        0.32215        5.43697
C          0.33080        0.29020        3.31230
H          1.14288       -0.39956        3.14225
Pd        -1.26868        1.44401       -0.88591
Cl        -2.32143        2.94240       -2.17912
Cl        -0.11029        0.56993       -2.60699
C         -4.18735        4.16500        0.81041
C         -4.07147        1.60672        0.86027
H         -1.97491        5.98199        0.45211
H         -0.72411        4.73691        0.57416
H         -1.89723        4.68671       -0.73619
H         -4.27711        4.36856       -0.26561
H         -4.65124        5.02624        1.31499
H         -4.19930        1.29051       -0.18371
C         -4.93845        2.84601        1.15313
C         -4.28391        0.44280        1.80427
H         -2.54873        4.30126        2.23513
H         -5.20861        2.84511        2.21804
H         -5.89204        2.78414        0.60721
H         -5.30345        0.05563        1.73924
H         -3.59487       -0.37573        1.58259
H         -4.10955        0.74519        2.83849
C         -1.16745       -4.20532        0.08355
C         -1.43826       -3.54407        1.30923
C         -1.06021       -2.21774        1.43632
C         -0.51746       -1.53239        0.38064
C         -0.37655       -2.13314       -0.84236
C         -0.71312       -3.46129       -1.03460
O         -1.31834       -5.61409       -0.01646
C         -2.10421       -4.24748        2.50242
H         -1.17762       -1.70196        2.37267
H         -0.00459       -1.53529       -1.65512
C         -0.54881       -4.08072       -2.43105
C          4.27263        0.91320       -0.77136
C          3.82508       -0.41818       -0.57261
C          2.52061       -0.61524       -0.15266
C          1.70081        0.44560        0.12906
C          2.15948        1.73328        0.03834
C          3.45474        2.00195       -0.37327
O          5.52147        1.15388       -1.40369
C          4.70972       -1.64220       -0.85628
H          2.11718       -1.60826       -0.06149
H          1.47750        2.53271        0.27412
C          3.92670        3.46305       -0.43053
C         -1.01898       -4.85122        3.40642
C         -2.93598       -3.24256        3.33207
C         -3.07432       -5.34584        2.03026
C          0.85982       -4.68073       -2.55718
C         -1.61278       -5.16398       -2.68360
C         -0.72529       -3.00820       -3.53039
C         -0.15413       -6.34809        0.34171
H         -1.46176       -5.35212        4.26695
H         -0.41647       -5.57845        2.86732
H         -0.34925       -4.07469        3.77535
H         -3.64512       -2.71119        2.69815
H         -3.50257       -3.75743        4.10762
H         -2.30517       -2.50896        3.83174
H         -3.59596       -5.79733        2.87378
H         -3.82008       -4.93289        1.35179
H         -2.55012       -6.14019        1.50506
H          1.01308       -5.11381       -3.54528
H          1.61894       -3.91467       -2.40284
H          1.02388       -5.46186       -1.81899
H         -1.53562       -5.56075       -3.69556
H         -1.50143       -5.99731       -1.99422
H         -2.61438       -4.75514       -2.55471
H         -0.74009       -3.46604       -4.51910
H         -1.66167       -2.46692       -3.39821
H          0.09083       -2.28720       -3.52520
H          0.15108       -6.97800       -0.49374
H          0.65906       -5.66936        0.60222
H         -0.37462       -6.99394        1.19137
C          5.44069        1.27162       -2.81879
C          4.55156       -2.05247       -2.32837
C          6.18651       -1.34190       -0.54277
C          4.29321       -2.83696        0.03225
C          3.57422        4.05396       -1.80436
C          3.22668        4.30484        0.66101
C          5.44091        3.57113       -0.17533
H          5.14271       -2.94004       -2.55247
H          3.50926       -2.27336       -2.55629
H          4.87324       -1.25784       -2.99668
H          6.80563       -2.22695       -0.68716
H          6.57758       -0.55839       -1.18706
H          6.30023       -1.01286        0.48960
H          3.31133       -3.22081       -0.24110
H          4.99820       -3.66130       -0.07313
H          4.26988       -2.54925        1.08301
H          3.88452        5.09624       -1.87303
H          4.06023        3.50463       -2.60692
H          2.49925        4.00902       -1.97805
H          3.65199        5.30708        0.70850
H          2.16224        4.41965        0.46209
H          3.34527        3.84401        1.64131
H          6.01218        3.06712       -0.95055
H          5.70206        3.11691        0.77988
H          5.76142        4.61245       -0.15490
H          4.41407        1.11935       -3.15460
H          5.78053        2.26070       -3.12514
H          6.09047        0.53074       -3.28435
