105
-153.06135055
Cl         0.62476        3.69603        1.48639
Pd        -0.08751        1.95234        0.25108
P         -0.74888        0.26795       -1.28937
N          0.11280       -1.13058       -1.95750
C          0.19045       -2.46615       -1.57435
C         -0.13914       -2.96177       -0.28279
C          0.15960       -4.30527        0.03587
C          0.02808       -4.77939        1.46527
C         -0.14416       -6.29971        1.58855
C          0.95683       -7.02413        0.80840
C          0.92730       -6.63411       -0.67909
C          0.65519       -5.17116       -0.94224
C          0.90060       -4.68010       -2.21716
C          0.69473       -3.35946       -2.51913
H          0.93056       -2.99184       -3.50289
H          1.28031       -5.35055       -2.96969
H          1.87659       -6.90587       -1.15818
H          1.93352       -6.76252        1.23476
H         -0.15210       -6.61232        2.64237
H          0.92623       -4.46651        2.01127
C         -0.71007       -2.09886        0.78635
C          0.12640       -1.12756        1.39616
C         -0.32190       -0.45655        2.53431
C         -1.57009       -0.70928        3.04125
C         -2.42528       -1.62725        2.43823
C         -3.77847       -1.85508        3.07140
C         -4.72825       -2.77047        2.27709
C         -3.96630       -3.89918        1.57517
C         -2.90927       -3.31731        0.62715
C         -1.99753       -2.32547        1.30530
H         -2.32118       -4.12062        0.16856
H         -4.65552       -4.56458        1.03614
H         -5.26305       -2.17819        1.52507
H         -4.25116       -0.87911        3.24008
H         -1.90832       -0.18212        3.91720
H          0.31353        0.27958        2.99143
N          1.28813       -0.76393        0.72048
P          1.84711        0.84848        0.96879
C          2.94337        1.33698       -0.35707
C          3.16168        2.67455       -0.58608
C          3.92224        3.06950       -1.67107
C          4.46382        2.12515       -2.53341
C          4.21777        0.77965       -2.29268
C          3.45788        0.38642       -1.20590
H          3.25142       -0.65614       -1.02532
H          4.61714        0.04200       -2.96760
C          5.24823        2.54840       -3.72615
H          4.08532        4.11603       -1.86374
H          2.69430        3.40015        0.06092
C          2.64544        0.92764        2.57014
C          2.54900        2.04325        3.36584
C          3.16995        2.06519        4.59986
C          3.89751        0.96859        5.04290
C          3.97452       -0.15466        4.22989
C          3.35104       -0.17284        2.99448
H          3.39816       -1.04444        2.36033
H          4.52216       -1.01640        4.57125
C          4.54495        0.97998        6.38396
H          3.09069        2.93518        5.22912
H          1.97890        2.88776        3.01800
H          1.13247       -0.85160       -0.28291
H          0.32082       -0.91840       -2.92538
C         -0.62960        1.46619       -2.62649
C         -1.74076        1.98250       -3.24865
C         -1.58969        2.91313       -4.25989
C         -0.32516        3.32694       -4.65788
C          0.78401        2.79962       -4.01091
C          0.63026        1.86861       -3.00017
H          1.48954        1.46858       -2.48674
H          1.76875        3.12811       -4.29590
C         -0.16356        4.35375       -5.72403
H         -2.45663        3.33048       -4.74294
H         -2.72147        1.66761       -2.93241
C         -2.47689       -0.17976       -1.13929
C         -3.01211       -0.97930       -2.12097
C         -4.35335       -1.31786       -2.07895
C         -5.16504       -0.85627       -1.05213
C         -4.60486       -0.05107       -0.06910
C         -3.26477        0.28477       -0.11366
H         -2.83058        0.91070        0.64861
H         -5.22420        0.31450        0.73195
C         -6.60349       -1.23842       -1.00484
H         -4.77726       -1.94702       -2.84281
H         -2.37523       -1.33787       -2.91441
Cl        -2.00756        3.03103       -0.19731
H          0.16140       -7.22382       -1.19702
H         -1.12411       -6.58719        1.18718
H          0.86614       -8.11291        0.92912
H         -0.80043       -4.26546        1.96403
H         -3.47364       -4.52848        2.32689
H         -3.40550       -2.81500       -0.20947
H         -3.61897       -2.27623        4.07133
H         -5.51004       -3.18086        2.93161
H          5.73005        3.51282       -3.55960
H          6.02987        1.82415       -3.95971
H          4.60291        2.64130       -4.60078
H          3.86003        0.60913        7.14769
H          5.43598        0.35073        6.39648
H          4.84902        1.98904        6.66573
H         -0.17360        5.35793       -5.29811
H          0.77945        4.22342       -6.25682
H         -0.96915        4.29062       -6.45689
H         -7.12338       -0.73363       -0.18948
H         -7.10693       -0.97252       -1.93536
H         -6.71437       -2.31367       -0.85703
