59
-75.80604626
Cl         1.43752        0.52453        2.42489
P          1.50253        0.02309       -0.86496
P         -1.70493       -0.16190       -0.77601
C          0.46792        0.29336       -2.36975
H          0.17329        1.34532       -2.40297
H          1.07652        0.09346       -3.25715
C         -0.74215       -0.59233       -2.29132
H         -0.44708       -1.64262       -2.22403
H         -1.39589       -0.48675       -3.16280
C          2.68016       -1.38359       -1.14121
H          2.74013       -1.46340       -2.23530
C          2.72986        1.38318       -0.55749
H          2.61069        1.66555        0.49556
C         -3.04331       -1.39236       -0.42364
H         -3.19810       -1.36806        0.66207
C         -2.76220        1.32820       -1.11022
H         -2.50977        1.66329       -2.12344
C          4.01128       -0.83458       -0.60170
H          4.10071       -1.07703        0.46454
H          4.85981       -1.33675       -1.09113
C          4.09470        0.70454       -0.77911
H          4.44281        0.93357       -1.79548
H          4.85072        1.13538       -0.10548
C         -4.25235       -0.76956       -1.13915
H         -4.24355       -1.08733       -2.19132
H         -5.19150       -1.16093       -0.71817
C         -4.20526        0.78013       -1.05785
H         -4.66855        1.10327       -0.11562
H         -4.81688        1.23230       -1.85282
C          2.23563       -2.72485       -0.55634
H          2.90808       -3.51255       -0.92395
H          1.25224       -2.97593       -0.97389
C          2.49666        2.59516       -1.45229
H          2.59489        2.28476       -2.50087
H          1.45799        2.93215       -1.34779
C         -2.69841       -2.80960       -0.86221
H         -3.60261       -3.43238       -0.81629
H         -2.41310       -2.79639       -1.92178
C         -2.51083        2.44646       -0.10259
H         -3.32040        3.18567       -0.18150
H         -2.59590        2.03061        0.91033
C          2.18394       -2.78373        0.96423
H          1.74401       -3.71826        1.32043
H          1.59279       -1.96940        1.38028
H          3.17856       -2.71341        1.40694
C          3.44401        3.74688       -1.15039
H          4.48550        3.45367       -1.29361
H          3.34294        4.07754       -0.11492
H          3.25618        4.61128       -1.79144
C         -1.59739       -3.42735       -0.01505
H         -0.70472       -2.80210       -0.01723
H         -1.31015       -4.41997       -0.36906
H         -1.90910       -3.52541        1.02661
C         -1.16858        3.13685       -0.27980
H         -1.07598        3.57067       -1.27726
H         -1.02257        3.94162        0.44428
H         -0.34393        2.43623       -0.15405
Cl        -1.72122       -0.24475        2.34214
Pd        -0.05636       -0.02056        0.84749
