45
-71.81449787
C          2.39779        0.91192        2.50088
P          1.55972        0.73725        0.89019
P         -1.02235        0.28497       -0.87071
C         -0.42279       -0.01681       -2.56763
Cl         1.53984       -2.17886        1.96347
H          3.10509        1.73559        2.46707
H         -0.94604        0.62950       -3.26650
Cl        -1.41855       -2.66261        0.32322
C          0.51297        2.14904        0.47600
C         -0.59724        1.94782       -0.31500
C         -1.38948        3.01433       -0.68669
C         -1.06374        4.29115       -0.26413
C          0.05305        4.49432        0.52342
C          0.84614        3.42178        0.89189
H         -2.25721        2.83979       -1.30257
H         -1.68079        5.12651       -0.55148
H          0.30948        5.48915        0.84864
H          1.72694        3.57086        1.49492
Pd         0.13308       -1.07336        0.60560
H         -0.59244       -1.05368       -2.84351
H          2.93389       -0.00277        2.73716
H          0.64176        0.19075       -2.62536
C         -5.46830       -0.47728       -0.27938
C         -4.86885       -0.85288       -1.46537
C         -3.51942       -0.61986       -1.66110
C         -2.78135       -0.01065       -0.67199
C         -3.37295        0.36061        0.51400
C         -4.72261        0.12889        0.71209
H         -6.51911       -0.66125       -0.12577
H         -5.44993       -1.33147       -2.23650
H         -3.03952       -0.91777       -2.57903
H         -2.77463        0.82786        1.28072
H         -5.18854        0.41789        1.63978
C          4.42155       -0.11982       -2.53436
C          3.74139        1.08188       -2.49281
C          2.88018        1.35042       -1.44430
C          2.71117        0.41842       -0.44654
C          3.37829       -0.78365       -0.48833
C          4.24069       -1.05517       -1.53423
H          5.09229       -0.32980       -3.35145
H          3.87939        1.80888       -3.27620
H          2.33577        2.27990       -1.40113
H          3.19597       -1.51053        0.28696
H          4.76411       -1.99639       -1.57090
H          1.66495        1.10217        3.27976
