59
-75.80706038
Cl         1.63858        0.53993        2.33982
P          1.62531       -0.10876       -0.85869
P         -1.59361       -0.14614       -0.77266
C          0.59454        0.25358       -2.34666
H          0.33589        1.31536       -2.34627
H          1.19230        0.06065       -3.24305
C         -0.64259       -0.59630       -2.28738
H         -0.38249       -1.65665       -2.22846
H         -1.28856       -0.45870       -3.16024
C          2.61795       -1.63890       -1.21957
H          2.41899       -1.84241       -2.28050
C          3.01709        1.09555       -0.63161
H          3.14163        1.20781        0.45238
C         -3.02650       -1.27482       -0.47051
H         -3.24718       -1.20314        0.60183
C         -2.54058        1.41675       -1.09235
H         -2.16417        1.81815       -2.04095
C          4.07971       -1.18502       -1.05513
H          4.44232       -1.47137       -0.06068
H          4.72813       -1.72067       -1.76484
C          4.22375        0.35001       -1.22635
H          4.29989        0.59608       -2.29457
H          5.15911        0.71180       -0.77252
C         -4.13951       -0.59591       -1.28576
H         -4.06923       -0.93621       -2.32870
H         -5.12931       -0.92475       -0.93268
C         -4.00901        0.95186       -1.22752
H         -4.57572        1.32412       -0.36348
H         -4.48078        1.41655       -2.10589
C          2.21796       -2.85196       -0.38118
H          2.78462       -3.72701       -0.72874
H          1.16852       -3.09095       -0.59438
C          2.75563        2.45698       -1.26466
H          3.68595        3.04184       -1.25240
H          2.51936        2.31627       -2.32726
C         -2.74152       -2.72262       -0.84585
H         -3.68268       -3.28992       -0.84437
H         -2.38549       -2.75916       -1.88331
C         -2.32217        2.41808        0.03600
H         -2.71919        1.99070        0.96674
H         -1.24655        2.53453        0.21779
C          2.41266       -2.68795        1.11976
H          2.00847       -3.53601        1.67753
H          1.91884       -1.79164        1.49236
H          3.46651       -2.60459        1.38833
C          1.64848        3.23096       -0.56873
H          0.71014        2.67841       -0.59291
H          1.46959        4.20333       -1.03322
H          1.88843        3.40542        0.48185
C         -1.73726       -3.37451        0.09125
H         -1.47809       -4.38898       -0.21990
H         -2.12654       -3.43039        1.10968
H         -0.81573       -2.79448        0.14009
C         -2.95282        3.77527       -0.23832
H         -2.78366        4.47806        0.58068
H         -2.54260        4.22309       -1.14548
H         -4.03163        3.69209       -0.38081
Cl        -1.58766        0.00280        2.38057
Pd         0.05239        0.00968        0.84692
