111
-148.55450312
P         -2.26577        2.20502        1.01651
P          0.08248        0.13723        0.47138
C         -1.25508        1.61048        2.39327
C         -0.24679        0.70408        2.15186
C         -2.40488        4.04820        1.03117
C         -1.53776        4.66337       -0.04585
C         -1.48950        2.05758        3.67744
H         -2.27859        2.76978        3.85695
C         -0.71165        1.58767        4.72167
H         -0.89362        1.93489        5.72564
C          0.29571        0.67349        4.47855
H          0.90066        0.30681        5.29140
C          0.52880        0.22979        3.18882
H          1.31308       -0.48120        2.98023
Pd        -1.41855        1.26068       -0.90612
Cl        -3.07902        2.27170       -2.01960
Cl        -0.51290        0.06410       -2.57618
C         -3.91622        4.28041        0.84954
C         -4.05324        1.73969        1.15555
H         -0.48570        4.40261        0.09428
H         -1.83517        4.30468       -1.03298
H         -1.62031        5.75279       -0.05164
H         -4.12697        4.40238       -0.22193
H         -4.21837        5.22838        1.32021
H         -4.33543        1.34142        0.17182
C         -4.74894        3.09106        1.40681
C         -4.28204        0.70657        2.23899
H         -2.08183        4.37678        2.02755
H         -4.89144        3.21999        2.48848
H         -5.76144        3.08547        0.97552
H         -3.99770        1.09949        3.21637
H         -5.33266        0.41238        2.29511
H         -3.68650       -0.19204        2.06572
C         -1.14707       -4.23172        0.10026
C         -2.12070       -3.20106        0.07466
C         -1.69243       -1.89250        0.22243
C         -0.35855       -1.58873        0.30562
C          0.59277       -2.57211        0.23238
C          0.23265       -3.90204        0.08878
O         -1.55329       -5.59089        0.17151
C         -3.62175       -3.47872       -0.10237
H         -2.40227       -1.08498        0.27165
H          1.62779       -2.28580        0.29460
C          1.33286       -4.96447       -0.06273
C          4.32627        1.21105       -0.80823
C          3.70117        1.91353        0.25331
C          2.42445        1.53071        0.63020
C          1.74956        0.54623       -0.04474
C          2.30705       -0.05491       -1.14255
C          3.58166        0.27562       -1.57082
O          5.70020        1.42536       -1.09900
C          4.38490        3.06718        1.00437
H          1.93444        2.00128        1.46487
H          1.71711       -0.77771       -1.67778
C          4.14137       -0.37237       -2.84730
C         -4.27126       -3.67079        1.27618
C         -4.31352       -2.29309       -0.81472
C         -3.85470       -4.72366       -0.97746
C          2.57767       -4.36355       -0.75375
C          1.74105       -5.47709        1.32640
C          0.85610       -6.13531       -0.94162
C         -1.71670       -6.07807        1.49738
H         -3.83063       -4.51228        1.80549
H         -4.13527       -2.78343        1.89374
H         -5.34102       -3.85536        1.18139
H         -4.34372       -1.40514       -0.18559
H         -3.79473       -2.04012       -1.73904
H         -5.34449       -2.54053       -1.06622
H         -3.35994       -4.61201       -1.94169
H         -3.46317       -5.62053       -0.50394
H         -4.91751       -4.88320       -1.15750
H          2.30269       -3.88057       -1.69106
H          3.07523       -3.63051       -0.12060
H          3.30855       -5.13985       -0.97912
H          2.10905       -4.65954        1.94590
H          0.89785       -5.92969        1.84271
H          2.53002       -6.22490        1.25031
H          0.52011       -5.77348       -1.91279
H          1.65835       -6.85423       -1.10601
H          0.02818       -6.66711       -0.47941
H         -1.05516       -6.92923        1.65782
H         -1.48567       -5.29588        2.22159
H         -2.74372       -6.41377        1.63982
C          6.58854        0.59183       -0.36553
C          5.14830        2.50474        2.21297
C          5.34356        3.84135        0.08140
C          3.33611        4.08296        1.51347
C          2.99671       -0.79961       -3.79425
C          5.02145        0.62444       -3.62304
C          4.95697       -1.61977       -2.47678
H          4.46854        1.99057        2.89213
H          5.90737        1.79057        1.90315
H          5.64181        3.30173        2.76860
H          5.77835        4.69728        0.59700
H          6.16225        3.21282       -0.25931
H          4.81590        4.20752       -0.79865
H          2.68780        4.41065        0.70114
H          2.71328        3.66086        2.30080
H          3.82235        4.96489        1.92986
H          2.41932       -1.62499       -3.38025
H          2.31880        0.03209       -3.98437
H          3.39180       -1.13497       -4.75280
H          5.89524        0.91424       -3.04414
H          5.37398        0.19081       -4.55850
H          4.46088        1.52867       -3.85787
H          5.80168       -1.36527       -1.84208
H          5.34395       -2.11212       -3.36860
H          4.34035       -2.33657       -1.93641
H          7.23906        0.05723       -1.05763
H          7.21495        1.20288        0.28377
H          6.02889       -0.12435        0.23745
