105
-153.06018517
Cl         0.27628        3.48018        1.80473
Pd        -0.16281        1.91926        0.24525
P         -0.73941        0.23618       -1.32674
N          0.08830       -1.19560       -1.96822
C          0.18355       -2.51880       -1.54848
C         -0.12302       -2.97539       -0.23808
C          0.23454       -4.28879        0.13831
C          0.14176       -4.68564        1.59484
C          0.99226       -5.91320        1.95273
C          0.74885       -7.04430        0.94934
C          1.11774       -6.60405       -0.47689
C          0.74313       -5.17936       -0.80981
C          0.94849       -4.73637       -2.10985
C          0.69720       -3.43625       -2.46461
H          0.91212       -3.10231       -3.46502
H          1.34676       -5.42409       -2.83677
H          2.19783       -6.71974       -0.62765
H          1.30618       -7.94681        1.23748
H          2.05386       -5.63630        1.93779
H          0.43971       -3.82929        2.21327
C         -0.72285       -2.09482        0.79958
C          0.10011       -1.11043        1.40601
C         -0.36226       -0.43421        2.53534
C         -1.61418       -0.69266        3.03069
C         -2.45564       -1.62024        2.42258
C         -3.82345       -1.84638        3.01046
C         -4.42225       -3.20450        2.61729
C         -4.35195       -3.39824        1.09968
C         -2.90360       -3.32283        0.58481
C         -2.01761       -2.32429        1.29746
H         -2.44778       -4.31562        0.64875
H         -4.95226       -2.62028        0.61490
H         -5.45619       -3.29892        2.97858
H         -4.48602       -1.03829        2.67867
H         -1.96846       -0.15625        3.89449
H          0.26168        0.31336        2.98980
N          1.25787       -0.74163        0.72654
P          1.80701        0.87399        0.97994
C          2.89592        1.38178       -0.34289
C          3.13973        2.72158       -0.52952
C          3.89484        3.13488       -1.61205
C          4.39606        2.20878       -2.51763
C          4.14356        0.85973       -2.30526
C          3.38841        0.44745       -1.22231
H          3.17104       -0.59693       -1.06735
H          4.53462        0.13471       -2.99845
C          5.21447        2.65109       -3.68028
H          4.08858        4.18252       -1.76649
H          2.70794        3.43545        0.15463
C          2.63615        0.92231        2.56871
C          3.44215       -0.14116        2.89852
C          4.09963       -0.15385        4.11635
C          3.95630        0.90185        5.00697
C          3.12788        1.96056        4.65940
C          2.47310        1.96944        3.44293
H          1.82196        2.78272        3.17257
H          2.99615        2.77621        5.34970
C          4.64197        0.87694        6.32871
H          4.72644       -0.98750        4.38311
H          3.54256       -0.96104        2.20417
H          1.10508       -0.84671       -0.27625
H          0.29059       -1.00823       -2.94249
C         -0.60630        1.39523       -2.69722
C         -1.70352        1.81065       -3.41260
C         -1.54535        2.70754       -4.45288
C         -0.28778        3.19696       -4.78032
C          0.80933        2.75541       -4.05373
C          0.64737        1.85845       -3.01405
H          1.49583        1.52553       -2.43991
H          1.79106        3.12056       -4.30229
C         -0.11531        4.14820       -5.91287
H         -2.40159        3.03696       -5.01632
H         -2.68085        1.44154       -3.14959
C         -2.47869       -0.15966       -1.15234
C         -3.03112       -1.00865       -2.08153
C         -4.38500       -1.29174       -2.03831
C         -5.19173       -0.72816       -1.05922
C         -4.61534        0.12877       -0.13155
C         -3.26293        0.41090       -0.17798
H         -2.82109        1.08657        0.53556
H         -5.23486        0.58179        0.62340
C         -6.65370       -1.00935       -1.02617
H         -4.82301       -1.95130       -2.76774
H         -2.39856       -1.44345       -2.83947
Cl        -1.84752        3.19047       -0.53261
H          0.64806       -7.26996       -1.21208
H          0.78812       -6.24866        2.97943
H         -0.30993       -7.33121        0.98006
H         -0.90286       -4.88307        1.85532
H         -4.81985       -4.34898        0.80809
H         -2.89730       -3.08233       -0.48522
H         -3.76763       -1.75356        4.10260
H         -3.86041       -4.00660        3.11236
H          6.27652        2.64420       -3.43153
H          5.06483        1.99448       -4.53855
H          4.94719        3.66293       -3.98830
H          5.59250        0.34497        6.26898
H          4.85045        1.88725        6.68348
H          4.02346        0.37856        7.07637
H          0.75869        4.78379       -5.76376
H          0.01513        3.61138       -6.85348
H         -0.98418        4.79999       -6.01426
H         -6.87001       -2.01318       -1.39461
H         -7.04600       -0.93806       -0.01066
H         -7.19857       -0.29774       -1.64787
