171
-217.84619460
P         -1.61103        0.40910       -0.31310
P          1.58167       -0.42033       -0.30431
C         -0.87004        1.34972       -1.65092
C          0.84011       -1.38689       -1.62241
C         -0.09203        0.71402       -2.61206
C          0.54673        1.49858       -3.59172
C          0.35847        2.87091       -3.58923
C         -0.43508        3.47892       -2.63945
C         -1.04328        2.71209       -1.66546
C          1.00980       -2.74961       -1.61094
C          0.40546       -3.53191       -2.57503
C         -0.37988       -2.93882       -3.54111
C         -0.56478       -1.56627       -3.56897
C          0.06924       -0.76641       -2.59897
Cl         1.59247        0.44348        2.87879
Cl        -1.57962       -0.33790        2.90673
C         -1.41951       -0.96319       -4.62828
C          1.41592        0.88249       -4.63162
H         -0.57722        4.54713       -2.65302
H         -1.65696        3.17893       -0.91231
H          1.61828       -3.20385       -0.84589
H          0.54605       -4.60037       -2.56972
H          0.84660        3.46557       -4.34292
H         -0.86310       -3.54546       -4.28838
C         -3.89978       -3.26650       -1.60879
C         -2.90932       -3.39904       -0.64423
C         -2.21164       -2.25759       -0.27056
C         -2.48472       -1.05175       -0.86618
C         -3.45635       -0.93901       -1.83029
C         -4.19223       -2.05292       -2.21831
H         -4.47658       -4.13198       -1.87800
H         -1.45883       -2.29514        0.49741
H         -3.64324        0.02912       -2.26302
C         -4.38387        2.91833        2.25688
C         -4.91970        1.88879        1.49343
C         -4.05070        1.14602        0.70499
C         -2.71031        1.44019        0.67197
C         -2.19979        2.46713        1.42653
C         -3.02690        3.21918        2.25024
H         -5.04626        3.48978        2.87931
H         -4.41223        0.31959        0.11996
H         -1.14310        2.67016        1.38683
C          4.39965       -2.85988        2.29027
C          3.04319       -3.16543        2.31068
C          2.19899       -2.43760        1.48194
C          2.69237       -1.42792        0.69369
C          4.03164       -1.12875        0.70141
C          4.91664       -1.84322        1.49588
H          5.06811       -3.42205        2.91319
H          1.14305       -2.64673        1.46309
H          4.39193       -0.31932        0.09131
C          3.91311        3.18858       -1.70217
C          2.91542        3.36593       -0.75204
C          2.20003        2.24669       -0.34603
C          2.46244        1.01883       -0.89965
C          3.43842        0.86214       -1.85296
C          4.19342        1.95206       -2.27014
H          4.50641        4.03637       -1.99093
H          1.44283        2.31858        0.41511
H          3.61605       -0.12241       -2.25154
Pd        -0.00504        0.01210        1.34798
C         -1.41406       -4.71778        0.92784
C         -2.64994       -4.76248        0.00961
C         -2.40253       -5.82167       -1.08117
C         -3.87650       -5.15772        0.85018
H         -1.20891       -5.70113        1.35065
H         -0.53243       -4.40179        0.37118
H         -1.56560       -4.02881        1.75828
H         -2.17219       -6.79042       -0.63811
H         -3.27566       -5.94934       -1.71954
H         -1.56445       -5.53299       -1.71424
H         -3.72122       -6.11872        1.34020
H         -4.07033       -4.41202        1.62104
H         -4.76890       -5.23701        0.23010
C         -5.13626       -3.00420       -4.34921
C         -5.34372       -1.96556       -3.23023
C         -5.42965       -0.56716       -3.87233
C         -6.66979       -2.25320       -2.50284
H         -5.92881       -2.93601       -5.09425
H         -4.18537       -2.84591       -4.85572
H         -5.13983       -4.01995       -3.95617
H         -6.23287       -0.52819       -4.60801
H         -5.63431        0.19764       -3.12342
H         -4.50125       -0.31140       -4.38200
H         -7.51408       -2.18836       -3.18894
H         -6.66997       -3.25062       -2.06440
H         -6.83201       -1.53587       -1.69908
C         -6.81193        0.44272        0.59716
C         -6.42248        1.58203        1.56018
C         -7.22026        2.84003        1.16980
C         -6.78705        1.15736        2.99405
H         -6.29787       -0.48319        0.85469
H         -7.88317        0.24695        0.64165
H         -6.56558        0.70105       -0.43259
H         -8.29189        2.64186        1.18400
H         -7.02583        3.66323        1.85613
H         -6.95134        3.16968        0.16638
H         -7.84642        0.91356        3.07198
H         -6.21471        0.27881        3.29130
H         -6.57333        1.95217        3.70778
C         -2.02353        5.50764        2.17710
C         -2.42593        4.34642        3.10154
C         -1.18522        3.82178        3.85278
C         -3.43192        4.86842        4.14588
H         -2.89480        5.90697        1.65824
H         -1.56416        6.31823        2.74251
H         -1.31236        5.17636        1.42244
H         -0.39519        3.52300        3.16592
H         -0.77511        4.58737        4.51099
H         -1.44265        2.95507        4.46116
H         -2.97227        5.62635        4.78012
H         -4.29760        5.32560        3.66739
H         -3.77852        4.06086        4.79054
C          2.06174       -5.46478        2.30602
C          2.46083       -4.27615        3.19644
C          1.22172       -3.74468        3.94566
C          3.48071       -4.76131        4.24524
H          1.34082       -5.16017        1.54935
H          2.93235       -5.86913        1.78996
H          1.61532       -6.26473        2.89641
H          1.47534       -2.85878        4.52742
H          0.42138       -3.47398        3.25917
H          0.82692       -4.49634        4.62883
H          3.82755       -3.93338        4.86339
H          3.03268       -5.50417        4.90511
H          4.34508       -5.22611        3.77179
C          7.22868       -2.34635        2.43740
C          6.40658       -1.47398        1.46985
C          6.56995        0.00146        1.88253
C          6.95161       -1.67481        0.04361
H          8.28188       -2.06703        2.40963
H          6.88250       -2.22608        3.46378
H          7.16061       -3.40064        2.16984
H          6.15742        0.17007        2.87700
H          7.62126        0.28815        1.89894
H          6.05505        0.66718        1.19075
H          8.01125       -1.42540       -0.00866
H          6.83183       -2.71102       -0.27201
H          6.42506       -1.04525       -0.67252
C          3.89236        5.16325        0.68934
C          2.66759        4.75379       -0.14704
C          1.42431        4.75522        0.76232
C          2.44101        5.77739       -1.27569
H          4.79036        5.21108        0.07415
H          3.74472        6.14213        1.14514
H          4.07149        4.44208        1.48666
H          0.54312        4.43048        0.20998
H          1.56133        4.09373        1.61728
H          1.22766        5.75495        1.14923
H          1.60434        5.47663       -1.90510
H          2.21890        6.76354       -0.86826
H          3.32041        5.87252       -1.91113
C          5.21838        2.84107       -4.39194
C          5.36086        1.80890       -3.25680
C          5.40520        0.40127       -3.88338
C          6.67998        2.05199       -2.50128
H          5.25952        3.86098       -4.01224
H          6.02022        2.72891       -5.12156
H          4.27042        2.71656       -4.91360
H          6.21584        0.32603       -4.60802
H          5.57342       -0.36285       -3.12497
H          4.47472        0.17314       -4.40228
H          6.70851        3.05368       -2.07347
H          6.79441        1.33816       -1.68580
H          7.53691        1.94614       -3.16625
H         -1.75773        0.03514       -4.34743
H          1.72558       -0.12434       -4.34830
H         -2.30576       -1.57242       -4.80545
H         -0.87525       -0.88412       -5.57028
H          2.31927        1.47419       -4.78084
H          0.89545        0.82056       -5.58826
