59
-75.79894908
Cl         1.53925        0.48499        2.36153
P          1.53177       -0.05407       -0.84461
P         -1.67574       -0.17051       -0.77029
C          0.50103        0.17610       -2.36080
H          0.21451        1.22928       -2.42407
H          1.10942       -0.05364       -3.24133
C         -0.71674       -0.69677       -2.25838
H         -0.43395       -1.74645       -2.15038
H         -1.36377       -0.61615       -3.13745
C          2.72581       -1.44601       -1.12502
H          2.68422       -1.61684       -2.20933
C          2.73532        1.33079       -0.57957
H          2.71489        1.55184        0.49435
C         -3.05978       -1.31451       -0.29991
H         -2.98862       -1.44312        0.78767
C         -2.66378        1.32531       -1.23145
H         -2.20485        1.76603       -2.12521
C          4.08826       -0.83039       -0.76056
H          4.31985       -1.04965        0.28878
H          4.89150       -1.30623       -1.34344
C          4.08800        0.70838       -0.96773
H          4.29274        0.93547       -2.02293
H          4.90445        1.18032       -0.40025
C         -4.33833       -0.52700       -0.66513
H         -5.04997       -1.19712       -1.16795
H         -4.84848       -0.19938        0.25249
C         -4.03969        0.70963       -1.55576
H         -4.82541        1.47097       -1.43923
H         -4.07037        0.41155       -2.61470
C          2.36448       -2.73737       -0.38985
H          3.02041       -3.54464       -0.74466
H          1.35323       -3.03732       -0.69393
C          2.36637        2.57852       -1.37253
H          2.38244        2.33640       -2.44331
H          1.32589        2.85130       -1.15205
C         -2.94073       -2.67791       -0.97159
H         -3.89687       -3.21238       -0.88248
H         -2.79233       -2.53073       -2.04919
C         -2.70243        2.35110       -0.10213
H         -3.52668        3.05498       -0.28386
H         -2.96385        1.83460        0.83088
C          2.43993       -2.66118        1.12863
H          3.46475       -2.53260        1.47963
H          2.05444       -3.56783        1.60100
H          1.86248       -1.82401        1.51774
C          3.28350        3.75767       -1.08452
H          2.99767        4.64730       -1.65044
H          4.31944        3.52663       -1.33890
H          3.26360        4.02148       -0.02540
C         -1.82345       -3.52444       -0.37911
H         -2.02237       -3.76195        0.66782
H         -0.87037       -2.99642       -0.40312
H         -1.69422       -4.46909       -0.91209
C         -1.40069        3.12134        0.06219
H         -1.45438        3.84627        0.87747
H         -0.56564        2.45535        0.27715
H         -1.14848        3.66850       -0.84814
Cl        -1.74581        0.04469        2.31791
Pd        -0.03386       -0.07163        0.86558
