75
-122.81196087
P          1.90493       -0.52020       -0.16848
C          3.34828       -1.20164       -1.01483
C          4.28650       -1.86262       -0.25337
C          5.41331       -2.39693       -0.85200
C          5.59721       -2.26311       -2.21352
C          4.66045       -1.59279       -2.97383
C          3.53846       -1.06008       -2.36939
H          2.81796       -0.50995       -2.94805
H          4.80614       -1.47883       -4.03553
H          6.47428       -2.67866       -2.68234
H          6.14509       -2.91680       -0.25576
H          4.13233       -1.96018        0.80946
C          1.61859       -1.59297        1.24221
C          1.90754       -1.15991        2.51593
C          1.80172       -2.03724        3.57944
C          1.41295       -3.34352        3.35679
C          1.12612       -3.77354        2.07627
C          1.23348       -2.89417        1.01369
H          1.03425       -3.21916        0.00436
H          0.82000       -4.79214        1.90357
H          1.32625       -4.02728        4.18534
H          2.02139       -1.70086        4.57928
H          2.21824       -0.13942        2.67089
C          2.26726        1.16023        0.35342
C          3.42602        1.81506        0.00833
C          3.60200        3.15327        0.33335
C          2.56454        3.82716        0.97719
C          1.39329        3.18489        1.31382
C          1.24679        1.81961        1.02163
O          0.07367        1.12368        1.35469
C         -1.13363        1.78607        1.07972
C         -1.29115        3.15509        1.34722
C         -2.47901        3.77314        1.02574
C         -3.52057        3.06943        0.42217
C         -3.35162        1.71605        0.16569
C         -2.17724        1.08177        0.49733
P         -1.79268       -0.64082        0.11997
C         -1.74814       -1.56520        1.66780
C         -1.39086       -0.94634        2.84368
C         -1.44606       -1.64166        4.03694
C         -1.85378       -2.96055        4.04472
C         -2.20298       -3.58343        2.86300
C         -2.15224       -2.88122        1.67231
H         -2.43771       -3.35133        0.74488
H         -2.51826       -4.61383        2.86758
H         -1.89268       -3.50639        4.97322
H         -1.16235       -1.15682        4.95652
H         -1.05065        0.07479        2.81965
C         -3.08368       -1.40176       -0.87961
C         -4.38015       -1.37995       -0.41773
C         -5.38362       -1.98457       -1.15296
C         -5.07892       -2.61723       -2.34157
C         -3.77417       -2.65361       -2.79134
C         -2.77320       -2.04890       -2.05351
H         -1.75009       -2.07833       -2.39184
H         -3.53486       -3.15158       -3.71657
H         -5.85980       -3.08742       -2.91675
H         -6.40010       -1.96470       -0.79570
H         -4.59940       -0.90711        0.52674
Pd        -0.06682       -0.00776       -1.40088
Cl        -1.78613        0.82167       -2.61061
Cl         1.35594        1.00014       -2.82559
H         -4.13441        1.16650       -0.32521
C         -4.79830        3.74815        0.07754
H         -5.53274        3.61877        0.87348
H         -5.22154        3.34129       -0.84182
H         -4.64857        4.81804       -0.07275
H         -2.59617        4.82149        1.23631
S          0.05160        4.04566        2.09156
H          2.67019        4.87331        1.20427
C          4.84237        3.87089       -0.06342
H          4.18950        1.28897       -0.53823
H          5.05940        4.69095        0.62223
H          5.70224        3.19973       -0.06056
H          4.74325        4.28705       -1.06671
