115
-277.94515804
P         -1.85652        0.44211        0.11205
P          1.74559       -0.12150        0.28952
C         -2.33746        2.15598       -0.15309
C         -1.38744        3.11893       -0.41735
H         -0.37952        2.83644       -0.67125
C         -1.71459        4.45207       -0.28037
H         -0.96261        5.22028       -0.37305
C         -2.98582        4.82004        0.12785
C         -3.96421        3.84748        0.26523
H         -4.94502        4.13733        0.60598
C         -3.64154        2.51327        0.11819
H         -4.37520        1.75018        0.32720
C         -3.14701       -0.59883       -0.61349
C         -3.33503       -1.87112       -0.12428
H         -2.73204       -2.22891        0.69258
C         -4.30682       -2.68382       -0.66817
H         -4.46316       -3.68467       -0.29746
C         -5.09726       -2.22955       -1.70599
C         -4.90213       -0.95372       -2.19543
H         -5.51300       -0.61763       -3.01848
C         -3.93329       -0.13855       -1.64545
H         -3.77265        0.85240       -2.03941
C         -1.68847        0.04509        1.88605
C         -1.01272       -1.14893        2.05423
H         -0.59592       -1.63794        1.19058
C         -0.69454       -1.63445        3.32063
C         -1.25655       -0.99343        4.41790
H         -1.05671       -1.36874        5.40758
C         -1.92305        0.20534        4.26117
H         -2.23493        0.75276        5.13458
C         -2.04737        0.80732        3.00871
C          1.43449        0.41075        2.00566
C          0.75637        1.61568        2.02702
H          0.42566        2.04491        1.09615
C          0.33124        2.18935        3.22387
C          0.79362        1.62889        4.40854
H          0.50983        2.07301        5.34795
C          1.46662        0.42361        4.39657
H          1.70036       -0.05871        5.33063
C          1.69482       -0.26689        3.20613
C         -2.20858        2.31303        2.98609
H         -2.96124        2.60931        3.72553
H         -2.64130        2.61581        2.03717
C         -0.86829        3.09726        3.23313
H         -0.73033        3.88762        2.48733
H         -0.90810        3.62845        4.19065
C          0.49589       -2.53748        3.49459
H          0.41552       -3.37856        2.79734
H          0.45330       -2.99932        4.48730
C          1.85504       -1.76946        3.30416
H          2.54198       -2.00766        4.12409
H          2.36491       -2.13560        2.41767
C          2.13409       -1.87315        0.14698
C          3.39175       -2.28979        0.52882
C          1.15311       -2.79294       -0.15579
C          3.62399       -3.63157        0.75361
C          1.38975       -4.13479        0.06101
C          2.60334       -4.55369        0.58129
C          3.13993        0.81255       -0.38323
C          3.36614        2.09240        0.06939
C          3.97648        0.26001       -1.32551
C          4.42997        2.82172       -0.42096
H          2.72321        2.51690        0.82170
C          5.03705        0.98989       -1.81990
H          3.79234       -0.73954       -1.68599
C          5.26812        2.27693       -1.37280
H          4.63534        3.81866       -0.06428
H          5.70240        0.56720       -2.55596
Pd         0.02925        0.19274       -1.28487
Cl        -1.49731        0.27565       -2.93327
Cl         1.61695       -0.22111       -2.82140
H          0.60443       -4.86435       -0.06366
H          0.19049       -2.46656       -0.51267
H          4.55962       -3.95985        1.17690
H          4.15391       -1.56038        0.75612
C         -4.63496        6.66529        0.67983
C         -3.15818        6.18044        0.75511
C         -2.64229        6.03764        2.22254
F         -4.69794        7.94500        1.07931
F         -5.03362        6.55890       -0.59632
F         -5.40345        5.89235        1.45955
F         -2.39357        7.07879        0.12975
F         -1.32868        5.78408        2.16064
F         -2.87196        7.17010        2.90042
F         -3.25632        4.99679        2.80257
C         -5.40039       -4.19324       -3.20694
C         -6.12925       -3.12792       -2.33875
C         -7.02468       -3.77048       -1.23850
F         -4.53505       -4.87174       -2.43920
F         -6.30430       -5.02277       -3.74976
F         -4.73383       -3.53884       -4.17007
F         -6.92419       -2.41855       -3.14461
F         -6.29096       -4.61420       -0.49940
F         -7.49041       -2.77773       -0.46575
F         -8.04405       -4.41966       -1.82175
C          7.71795        2.56534       -1.06763
C          6.46527        3.06330       -1.84355
C          6.63107        2.93387       -3.38647
F          8.80278        3.22929       -1.49407
F          7.50560        2.80973        0.23431
F          7.86143        1.24611       -1.26252
F          6.30026        4.35887       -1.56249
F          7.58274        3.78467       -3.80066
F          6.96003        1.67267       -3.69908
F          5.45393        3.24897       -3.94749
C          4.10064       -6.46345        1.31782
C          2.65366       -5.89260        1.27347
C          2.05508       -5.65555        2.69628
F          4.58838       -6.43489        0.06869
F          4.86067       -5.70295        2.11788
F          4.06072       -7.72649        1.77018
F          1.87906       -6.77372        0.63604
F          2.18328       -6.76403        3.43782
F          2.68369       -4.61873        3.26796
F          0.76300       -5.34153        2.53791
