171
-217.84082547
P         -1.52356        0.25283       -0.33084
P          1.68151       -0.63510       -0.17627
C         -0.78530        0.99918       -1.79044
C          0.96529       -1.71170       -1.43986
C         -0.03607        0.22855       -2.66981
C          0.56271        0.85283       -3.78191
C          0.36301        2.20829       -3.98632
C         -0.39065        2.95516       -3.10661
C         -0.96036        2.34407       -2.00746
C          1.17598       -3.06269       -1.29299
C          0.55574       -3.96637       -2.13270
C         -0.30675       -3.50949       -3.10505
C         -0.54125       -2.15540       -3.27010
C          0.13184       -1.23178       -2.44704
Cl         1.38106       -0.42224        3.07802
Cl        -1.76379       -1.10136        2.68579
C         -1.51387       -1.71240       -4.30679
C          1.38976        0.07452       -4.74505
H         -0.53205        4.01051       -3.27355
H         -1.54810        2.92203       -1.31482
H          1.83093       -3.41818       -0.51526
H          0.73177       -5.02328       -2.01541
H          0.80390        2.67863       -4.84869
H         -0.81299       -4.20865       -3.74923
C         -4.23494       -3.19064       -1.48688
C         -4.50102       -1.93228       -2.01494
C         -3.66740       -0.88414       -1.64510
C         -2.62085       -1.09261       -0.78124
C         -2.36827       -2.34554       -0.27990
C         -3.17170       -3.42392       -0.62419
H         -4.87325       -4.01503       -1.74307
H         -3.83275        0.10099       -2.04266
H         -1.53277       -2.48013        0.38348
C         -3.73557        3.58842        1.85253
C         -4.12162        3.23618        0.56652
C         -3.45076        2.18654       -0.04919
C         -2.41755        1.53829        0.58484
C         -2.04487        1.91851        1.85295
C         -2.70549        2.94058        2.51905
H         -4.24981        4.39146        2.34786
H         -3.71053        1.89178       -1.04957
H         -1.23021        1.41503        2.33695
C          5.04846       -2.70147        2.05556
C          3.74930       -3.17256        2.20936
C          2.73767       -2.52769        1.51167
C          3.01731       -1.46107        0.69504
C          4.30491       -1.00683        0.55710
C          5.34966       -1.61790        1.23735
H          5.84230       -3.18391        2.59234
H          1.71355       -2.83947        1.63446
H          4.49632       -0.15826       -0.07598
C          2.99468        3.54536       -1.30787
C          2.06798        3.39088       -0.28346
C          1.66234        2.10129        0.03005
C          2.16168        1.02295       -0.66070
C          3.07890        1.19220       -1.66794
C          3.52168        2.46535       -2.00644
H          3.33183        4.53153       -1.56586
H          0.95823        1.93807        0.82722
H          3.44980        0.32047       -2.17975
Pd        -0.06408       -0.50152        1.35015
C         -6.38891       -2.96186       -3.37778
C         -5.71379       -1.65564       -2.91635
C         -5.27619       -0.87382       -4.17045
C         -6.73594       -0.82280       -2.12269
H         -6.79507       -3.51680       -2.53250
H         -7.21537       -2.75098       -4.05640
H         -5.68117       -3.60178       -3.90469
H         -6.12731       -0.68197       -4.82366
H         -4.83819        0.08917       -3.91194
H         -4.53947       -1.43796       -4.74073
H         -7.61463       -0.59983       -2.72762
H         -7.06399       -1.36087       -1.23355
H         -6.30172        0.12184       -1.79797
C         -2.74695       -5.82832       -1.21119
C         -2.92933       -4.82887       -0.05450
C         -4.14039       -5.23968        0.80190
C         -1.66705       -4.87333        0.83123
H         -3.63549       -5.87628       -1.83937
H         -1.90724       -5.53815       -1.84120
H         -2.55265       -6.83159       -0.83240
H         -4.29240       -4.53113        1.61593
H         -5.05310       -5.26737        0.20773
H         -3.99395       -6.22820        1.23683
H         -1.49809       -5.87931        1.21483
H         -0.78135       -4.58251        0.26745
H         -1.76428       -4.20715        1.68825
C         -6.55347        3.83497        0.65764
C         -5.24569        4.01205       -0.13440
C         -5.47235        3.51071       -1.57437
C         -4.87030        5.50463       -0.19650
H         -7.37588        4.36446        0.17690
H         -6.82278        2.78095        0.72385
H         -6.45615        4.21953        1.67227
H         -4.56925        3.62008       -2.17478
H         -5.76874        2.46256       -1.58277
H         -6.26383        4.07961       -2.06205
H         -5.63827        6.07870       -0.71466
H         -4.75554        5.92770        0.80068
H         -3.92903        5.64213       -0.72865
C         -3.56150        3.22500        4.85865
C         -2.32716        3.35814        3.94756
C         -1.84116        4.81821        3.93980
C         -1.20459        2.47019        4.52220
H         -3.31709        3.48824        5.88760
H         -4.36941        3.87816        4.53131
H         -3.93450        2.20100        4.85152
H         -0.96702        4.92893        3.29954
H         -2.61441        5.49069        3.57011
H         -1.56634        5.14327        4.94308
H         -0.96058        2.76633        5.54215
H         -1.50591        1.42305        4.54557
H         -0.29365        2.55286        3.93054
C          4.63250       -4.96300        3.78957
C          3.38398       -4.33863        3.13828
C          2.65855       -5.42932        2.32710
C          2.45528       -3.81879        4.25179
H          4.35594       -5.79790        4.43335
H          5.32041       -5.34201        3.03395
H          5.16031       -4.23461        4.40482
H          1.73107       -5.05388        1.89628
H          3.28725       -5.78404        1.51062
H          2.40931       -6.28291        2.95718
H          2.18534       -4.61815        4.94148
H          2.94375       -3.02904        4.82197
H          1.53452       -3.40779        3.83926
C          7.79275       -1.85110        1.91890
C          6.77334       -1.06740        1.07028
C          6.80047        0.40805        1.51287
C          7.18594       -1.16993       -0.40966
H          7.82303       -2.90047        1.62619
H          8.79591       -1.44453        1.79087
H          7.54683       -1.79370        2.97909
H          6.13618        1.01818        0.90179
H          6.48147        0.50396        2.55050
H          7.80473        0.82277        1.42790
H          8.19939       -0.79797       -0.55926
H          7.15209       -2.20530       -0.74812
H          6.52048       -0.58830       -1.04619
C         -0.00515        4.65124        0.37074
C          1.52321        4.57357        0.53183
C          2.12869        5.91239        0.06914
C          1.87585        4.36500        2.01658
H         -0.41769        5.48314        0.94085
H         -0.27381        4.79790       -0.67462
H         -0.48452        3.73821        0.71937
H          1.88850        6.11106       -0.97522
H          1.73510        6.73903        0.66060
H          3.21266        5.91280        0.18225
H          2.95456        4.28253        2.14757
H          1.52478        5.19949        2.62314
H          1.42270        3.45476        2.40665
C          4.01308        3.58646       -4.19751
C          4.59330        2.70095       -3.08048
C          5.07612        1.37711       -3.70457
C          5.80613        3.40066       -2.43853
H          3.15293        3.10569       -4.66121
H          3.68871        4.55171       -3.81058
H          4.75493        3.77023       -4.97448
H          5.51452        0.72509       -2.94968
H          4.25583        0.84539       -4.18442
H          5.83704        1.56169       -4.46275
H          6.21353        2.79653       -1.62787
H          6.59725        3.56014       -3.17100
H          5.53275        4.37165       -2.02742
H         -1.79999       -0.66889       -4.16846
H          0.76901       -0.36236       -5.52795
H         -2.42364       -2.31237       -4.25725
H         -1.09613       -1.82108       -5.30852
H          1.92108       -0.73550       -4.24298
H          2.13360        0.70915       -5.22852
