115
-277.93459914
P         -1.73481       -0.07107       -0.16138
P          1.72989       -0.75265        0.56373
C         -1.52409        1.70538       -0.43308
C         -2.64057        2.50750       -0.34487
H         -3.61976        2.06062       -0.26649
C         -2.49274        3.87503       -0.24617
H         -3.34520        4.50192       -0.04021
C         -1.23017        4.44567       -0.27085
C         -0.12986        3.64221       -0.52310
H          0.84569        4.10598       -0.57604
C         -0.27748        2.27211       -0.59733
H          0.59196        1.64815       -0.71367
C         -3.17763       -0.66566       -1.06155
C         -3.69643        0.02207       -2.13469
H         -3.22291        0.93124       -2.46844
C         -4.80711       -0.46681       -2.79286
H         -5.23597        0.06024       -3.63067
C         -5.39746       -1.64599       -2.38216
C         -4.86674       -2.33025       -1.30539
H         -5.34254       -3.24329       -0.98501
C         -3.75722       -1.84236       -0.64782
H         -3.34664       -2.37342        0.19566
C         -1.83376       -0.64826        1.57079
C         -1.22192       -1.87753        1.74733
H         -0.71955       -2.34032        0.91420
C         -1.08910       -2.44969        3.01310
C         -1.80256       -1.87226        4.05717
H         -1.74957       -2.31286        5.03875
C         -2.43378       -0.65669        3.88611
H         -2.87378       -0.16610        4.73768
C         -2.36084        0.03177        2.67585
C          1.19331       -0.31469        2.25775
C          0.53089        0.89594        2.26595
H          0.35742        1.40213        1.33468
C         -0.08194        1.39089        3.41450
C          0.18516        0.74562        4.61564
H         -0.24349        1.12665        5.52745
C          0.85416       -0.46195        4.62297
H          0.94330       -1.00896        5.54632
C          1.26410       -1.07110        3.43667
C         -2.53620        1.53250        2.71953
H         -3.42255        1.77297        3.31690
H         -2.77853        1.88196        1.71912
C         -1.27699        2.29606        3.27642
H         -1.01177        3.14378        2.63522
H         -1.49792        2.74433        4.25121
C          0.07302       -3.36155        3.31402
H          0.15412       -4.12772        2.53589
H         -0.14129       -3.92335        4.23004
C          1.42583       -2.57433        3.46162
H          1.93855       -2.86650        4.38586
H          2.12092       -2.87904        2.68396
C          2.66594       -2.28220        0.64810
C          2.05864       -3.47235        0.30829
C          3.87711       -2.27378        1.30797
C          2.61181       -4.66396        0.72943
C          4.41797       -3.46725        1.74732
C          3.75238       -4.66288        1.51572
C          2.80272        0.54163       -0.08447
C          3.11401        0.56467       -1.42375
C          3.18492        1.58109        0.73353
C          3.75373        1.65856       -1.96287
H          2.81676       -0.25502       -2.05638
C          3.82877        2.67636        0.19578
H          2.93738        1.56075        1.78221
C          4.09472        2.73138       -1.15933
H          3.93704        1.71940       -3.02345
H          4.06896        3.53548        0.80314
Pd         0.17669       -0.98259       -1.19226
Cl        -1.16150       -1.02283       -2.99724
Cl         1.78876       -2.10437       -2.28736
H          5.29260       -3.46976        2.37738
H          4.33475       -1.33399        1.57569
H          2.09761       -5.59942        0.57157
H          1.11492       -3.47056       -0.21259
C         -2.17408        6.78658       -0.00518
C         -1.00428        5.81389        0.32447
C         -0.82842        5.58274        1.85819
F         -1.84431        8.02212        0.40279
F         -2.35512        6.77136       -1.33427
F         -3.29315        6.37579        0.60718
F          0.12301        6.35151       -0.14731
F          0.24430        4.79666        2.02710
F         -0.65552        6.75710        2.47953
F         -1.90689        4.94333        2.33023
C         -6.55748       -3.65662       -3.35506
C         -6.65454       -2.13054       -3.05890
C         -7.86931       -1.77951       -2.15251
F         -6.54638       -4.33884       -2.20146
F         -7.60327       -4.02682       -4.11007
F         -5.41092       -3.86861       -4.01837
F         -6.82011       -1.50106       -4.22543
F         -7.69658       -2.33990       -0.94641
F         -7.90483       -0.44411       -2.02930
F         -8.99838       -2.22355       -2.72464
C          5.39289        3.83624       -3.03103
C          4.52149        4.04578       -1.75813
C          3.21635        4.84492       -2.04557
F          6.38639        2.99479       -2.70839
F          4.64615        3.30139       -4.00697
F          5.89582        5.01865       -3.41887
F          5.24575        4.73939       -0.87592
F          2.61663        5.05625       -0.86567
F          3.51685        6.00918       -2.63937
F          2.40991        4.10385       -2.81926
C          5.48444       -5.98304        2.81902
C          3.99391       -5.87137        2.38631
C          3.01892       -5.72547        3.59920
F          5.80118       -4.95694        3.62064
F          5.67056       -7.15004        3.45506
F          6.23475       -5.93707        1.70825
F          3.66945       -6.98634        1.72728
F          1.76931       -5.72859        3.11401
F          3.19541       -6.74591        4.44897
F          3.24394       -4.55219        4.20508
