72
-98.10400882
Fe         0.00998        2.78457        0.03375
P          1.89091       -0.04939       -0.08211
P         -1.84826       -0.02934        0.05984
C          1.45238        1.55167        0.68933
C          0.43913        1.73795        1.71331
C          0.37003        3.15633        2.01778
C          1.36875        3.83975        1.21535
C          2.04987        2.84589        0.40400
C         -1.40883        1.59271       -0.68325
C         -1.99087        2.88366       -0.34423
C         -1.30088        3.90034       -1.11928
C         -0.32679        3.23781       -1.96631
C         -0.40855        1.81123       -1.71208
C          3.30533       -0.76152        0.88530
C          4.49789        0.01643        0.30385
C          2.83135        0.23057       -1.66473
C          4.30120        0.36588       -1.19914
C         -3.16894       -0.79361       -1.00313
C         -4.36427        0.11537       -0.66920
C         -2.97569        0.32858        1.50166
C         -4.34596        0.57000        0.82130
H         -0.16817        0.94852        2.15717
H         -0.29611        3.62227        2.74769
H          1.58165        4.91071        1.23055
H          2.85543        3.03310       -0.30850
H         -2.77915        3.06105        0.38977
H          0.19068        1.03749       -2.18708
Cl         1.55871       -3.05565       -0.34997
Cl        -1.58279       -2.99626        0.48034
Pd         0.02106       -1.46402        0.07212
H          3.37438       -1.82300        0.62091
C          3.16526       -0.60043        2.39572
H          2.46633        1.16900       -2.09869
C          2.65757       -0.91663       -2.66052
H          5.43323       -0.54318        0.45998
H          4.61602        0.94325        0.88413
H          4.67924        1.37741       -1.40942
H          4.92523       -0.30100       -1.81025
H         -1.49954        4.97395       -1.08903
H          0.33881        3.72398       -2.68291
H          4.13063       -0.82817        2.86879
H          3.44027       -0.84488       -3.42873
H         -3.35285       -1.80333       -0.61761
C         -2.81043       -0.85745       -2.49064
H         -2.60078        1.23894        1.98464
C         -3.04129       -0.81066        2.51610
H         -5.31212       -0.38582       -0.92019
H         -4.31707        0.99599       -1.32674
H         -4.63809        1.62727        0.90281
H         -5.11688        0.02073        1.37977
H         -3.72889       -0.75991       -3.08613
H         -3.31805       -1.73231        1.98776
C          2.07897       -1.47343        2.99585
H          1.10646       -1.21772        2.58072
H          2.25355       -2.52914        2.77999
H          2.01167       -1.36259        4.08051
C          1.29765       -0.96356       -3.33400
H          1.20350       -1.81956       -4.00618
H          0.49911       -1.04047       -2.59826
H          1.11459       -0.06416       -3.92500
C         -2.09189       -2.14320       -2.87473
H         -1.20912       -2.30880       -2.25802
H         -2.73730       -3.01172       -2.73033
H         -1.77306       -2.14127       -3.91942
C         -1.75811       -1.02140        3.29781
H         -1.45975       -0.11516        3.82806
H         -1.85542       -1.81878        4.03817
H         -0.94327       -1.29968        2.63267
H          2.97509        0.45660        2.62323
H          2.85576       -1.86086       -2.13676
H         -2.20682        0.02146       -2.75033
H         -3.86861       -0.61870        3.21357
