105
-153.06192700
Cl         0.11385        2.00822        3.06914
Pd        -0.43432        1.37117        0.98058
P         -1.05191        0.55438       -1.14157
N         -0.49216       -0.88502       -1.98741
C          0.29348       -1.97034       -1.60862
C          0.34110       -2.47101       -0.28375
C          1.20977       -3.54340        0.01552
C          1.23528       -4.09284        1.42323
C          2.40039       -5.05046        1.72186
C          2.62030       -6.03077        0.56697
C          2.92699       -5.27031       -0.73085
C          1.98163       -4.12570       -0.99413
C          1.87716       -3.64789       -2.29376
C          1.04935       -2.59959       -2.59657
H          0.99738       -2.22520       -3.60417
H          2.47192       -4.10344       -3.06738
H          3.94976       -4.87647       -0.69589
H          3.42313       -6.74304        0.80500
H          3.31695       -4.46828        1.88072
H          1.26790       -3.25360        2.12692
C         -0.66553       -2.05797        0.72636
C         -0.24524       -1.45893        1.94578
C         -1.17649       -1.32598        2.97978
C         -2.46642       -1.76298        2.82923
C         -2.89682       -2.35056        1.64593
C         -4.31476       -2.86528        1.58568
C         -4.59155       -3.81338        0.40881
C         -3.94324       -3.29492       -0.87724
C         -2.42353       -3.14784       -0.70641
C         -2.00259       -2.47889        0.58028
H         -1.94621       -4.13351       -0.75830
H         -4.37629       -2.32066       -1.13494
H         -5.67245       -3.95613        0.26829
H         -4.99763       -2.01030        1.54017
H         -3.16623       -1.65521        3.64066
H         -0.86767       -0.85883        3.89842
N          1.05720       -0.97250        2.13569
P          1.63859        0.24699        1.00531
C          2.61610       -0.31767       -0.37452
C          2.46562        0.31745       -1.58231
C          3.25748       -0.05495       -2.65322
C          4.20682       -1.05888       -2.51211
C          4.36477       -1.66256       -1.27106
C          3.56980       -1.29084       -0.20171
H          3.68355       -1.75536        0.76493
H          5.11075       -2.42898       -1.14860
C          5.06363       -1.45822       -3.66214
H          3.13939        0.43076       -3.60663
H          1.72201        1.09064       -1.68178
C          2.61051        1.52604        1.80714
C          3.33132        1.23840        2.94111
C          4.08241        2.23030        3.54553
C          4.11323        3.51431        3.01776
C          3.39366        3.77812        1.86000
C          2.64389        2.78525        1.25584
H          2.08126        2.98772        0.35761
H          3.42254        4.76683        1.43491
C          4.93636        4.57782        3.65718
H          4.65005        2.01212        4.43396
H          3.31041        0.23973        3.34641
H          1.21318       -0.54550        3.03967
H         -0.74881       -0.79563       -2.96277
C         -0.64796        1.97978       -2.16971
C         -1.04365        3.23776       -1.78286
C         -0.72945        4.33584       -2.56016
C         -0.00812        4.18426       -3.73591
C          0.37234        2.90669       -4.12245
C          0.05274        1.81119       -3.34162
H          0.36120        0.82414       -3.64157
H          0.92125        2.77501       -5.03929
C          0.31338        5.36367       -4.58632
H         -1.04325        5.32004       -2.25675
H         -1.59838        3.35526       -0.86752
C         -2.84514        0.44814       -1.13549
C         -3.48471        0.55324       -2.34831
C         -4.86511        0.47765       -2.41023
C         -5.61506        0.31167       -1.25420
C         -4.95128        0.20226       -0.04074
C         -3.57102        0.25807        0.01512
H         -3.05371        0.16438        0.95656
H         -5.52462        0.08252        0.86232
C         -7.09900        0.20774       -1.31584
H         -5.36807        0.55214       -3.35916
H         -2.90059        0.69683       -3.24418
Cl        -2.34078        2.56570        1.02680
H          2.90570       -5.95596       -1.58766
H          2.22951       -5.59139        2.66335
H          1.71709       -6.63846        0.42878
H          0.28142       -4.59875        1.61401
H         -4.17912       -3.95344       -1.72515
H         -2.01596       -2.57869       -1.54941
H         -4.54491       -3.36727        2.53430
H         -4.19097       -4.80850        0.64004
H          4.54051       -1.31878       -4.60929
H          5.97704       -0.86259       -3.69038
H          5.34810       -2.50924       -3.59388
H          4.49645        5.56358        3.49969
H          5.01596        4.42009        4.73366
H          5.94529        4.58886        3.24262
H          1.22947        5.20096       -5.15590
H         -0.49256        5.56185       -5.29422
H          0.45620        6.25886       -3.97940
H         -7.41145       -0.83572       -1.37666
H         -7.56023        0.64634       -0.42987
H         -7.49547        0.72966       -2.18783
