105
-153.05908647
Cl         0.57007        3.70658        1.51053
Pd        -0.09684        1.99371        0.21260
P         -0.72600        0.25992       -1.29331
N          0.14877       -1.13486       -1.95287
C          0.23554       -2.46820       -1.56415
C         -0.10794       -2.96365       -0.27596
C          0.20535       -4.30139        0.05299
C          0.05995       -4.77122        1.48252
C         -0.08877       -6.29362        1.61088
C          1.03488       -7.00331        0.84980
C          1.01912       -6.62121       -0.63991
C          0.72842       -5.16385       -0.91382
C          0.98562       -4.67463       -2.18713
C          0.76584       -3.35824       -2.49768
H          1.01182       -2.99119       -3.47917
H          1.38629       -5.34255       -2.93099
H          1.97870       -6.88080       -1.10503
H          2.00107       -6.72299        1.28803
H         -0.10634       -6.60136        2.66601
H          0.94426       -4.44071        2.04058
C         -0.70793       -2.10476        0.78048
C          0.10289       -1.11461        1.39377
C         -0.37213       -0.44119        2.51940
C         -1.62123       -0.71354        3.01371
C         -2.45148       -1.65249        2.40809
C         -3.80717       -1.90191        3.02766
C         -4.73252       -2.83577        2.22605
C         -3.94405       -3.95423        1.53705
C         -2.88563       -3.35845        0.59923
C         -1.99784       -2.35008        1.28476
H         -2.27958       -4.15352        0.14976
H         -4.61595       -4.63273        0.99253
H         -5.26850       -2.25514        1.46584
H         -4.29841       -0.93383        3.18860
H         -1.97980       -0.18598        3.88128
H          0.24401        0.31039        2.97779
N          1.27081       -0.74205        0.73483
P          1.81249        0.87441        0.98575
C          2.92994        1.36260       -0.32303
C          3.15482        2.70020       -0.54554
C          3.93073        3.09577       -1.61940
C          4.48141        2.15224       -2.47682
C          4.22923        0.80672       -2.24255
C          3.45396        0.41281       -1.16698
H          3.24301       -0.62971       -0.99179
H          4.63566        0.06966       -2.91389
C          5.28167        2.57722       -3.65834
H          4.09898        4.14232       -1.80747
H          2.68176        3.42541        0.09781
C          2.59007        0.95414        2.59817
C          2.47170        2.06234        3.40123
C          3.07765        2.08177        4.64268
C          3.80185        0.98533        5.09145
C          3.91677       -0.12341        4.26321
C          3.30816       -0.13913        3.02035
H          3.37923       -1.00246        2.37714
H          4.48444       -0.97493        4.59744
C          4.47585        1.01350        6.41913
H          2.99115        2.95073        5.27243
H          1.89870        2.90425        3.05229
H          1.13368       -0.83667       -0.27042
H          0.36965       -0.92234       -2.91781
C         -0.60676        1.45365       -2.63558
C          0.65302        1.85166       -3.01490
C          0.80564        2.77930       -4.02889
C         -0.30479        3.31748       -4.66469
C         -1.56843        2.89514       -4.27298
C         -1.71857        1.96786       -3.25856
H         -2.69895        1.65146       -2.94282
H         -2.43552        3.30118       -4.76531
C         -0.14237        4.30218       -5.76984
H          1.79073        3.09510       -4.32679
H          1.51323        1.44985       -2.50437
C         -2.45151       -0.20574       -1.16110
C         -2.97032       -1.00010       -2.15574
C         -4.30803       -1.35373       -2.12831
C         -5.13318       -0.91230       -1.10341
C         -4.58942       -0.11271       -0.10672
C         -3.25250        0.23705       -0.13613
H         -2.83009        0.85556        0.63876
H         -5.21891        0.23709        0.69345
C         -6.56778       -1.31015       -1.07216
H         -4.71879       -1.97899       -2.90250
H         -2.32342       -1.34285       -2.94809
Cl        -2.07459        2.98334       -0.17713
H          0.26918       -7.22505       -1.16487
H         -1.05808       -6.59925        1.19727
H          0.96094       -8.09285        0.97502
H         -0.78451       -4.26900        1.96616
H         -3.44996       -4.57272        2.29675
H         -3.38014       -2.86638       -0.24460
H         -3.65097       -2.31747        4.03044
H         -5.51477       -3.25675        2.87326
H          4.64391        2.69564       -4.53543
H          5.78112        3.52943       -3.47432
H          6.05048        1.84133       -3.89794
H          3.92750        1.63789        7.12589
H          4.54479        0.01242        6.84712
H          5.48724        1.41266        6.33156
H          0.76412        4.89480       -5.63879
H         -0.07730        3.79568       -6.73378
H         -0.98579        4.99297       -5.80828
H         -7.06702       -1.03738       -2.00301
H         -6.66833       -2.38840       -0.93919
H         -7.09916       -0.82159       -0.25425
