111
-148.55514651
P         -1.76662        2.78100        0.35305
P         -0.47033       -0.09573        0.51739
C         -1.39751        2.04625        1.97252
C         -0.90039        0.76198        2.04306
C         -0.66278        4.23167        0.04269
C          0.27702        3.95276       -1.11132
C         -1.57976        2.77551        3.13025
H         -1.92877        3.79320        3.06836
C         -1.28927        2.20495        4.35756
H         -1.43552        2.77302        5.26174
C         -0.80600        0.91215        4.42511
H         -0.57439        0.47053        5.38036
C         -0.60046        0.19160        3.26233
H         -0.18958       -0.80523        3.29357
Pd        -1.65388        1.00849       -1.12808
Cl        -3.02325        2.12814       -2.50510
Cl        -1.42188       -0.77553       -2.47507
C         -1.65189        5.38727       -0.20939
C         -3.42063        3.61280        0.28801
H         -0.28509        3.72489       -2.01932
H          0.91695        4.81265       -1.32264
H          0.92209        3.09639       -0.90394
H         -1.75611        5.52987       -1.29370
H         -1.24050        6.33371        0.17273
H         -3.81803        3.40966       -0.71476
C         -3.05130        5.10220        0.40728
C         -4.37902        3.09930        1.34144
H         -0.10686        4.39478        0.97509
H         -3.05287        5.38588        1.46861
H         -3.82442        5.72703       -0.06562
H         -4.52618        2.02082        1.24915
H         -4.00260        3.29284        2.34608
H         -5.35535        3.58244        1.26027
C         -0.47190       -4.63343        0.87248
C         -1.62354       -3.97266        0.37247
C         -1.61412       -2.58844        0.31356
C         -0.49350       -1.87742        0.65307
C          0.65784       -2.51612        1.03390
C          0.71521       -3.89726        1.11743
O         -0.51635       -6.02444        1.15629
C         -2.87104       -4.73437       -0.10260
H         -2.48236       -2.04294       -0.01366
H          1.52139       -1.91381        1.25967
C          2.05006       -4.56898        1.47600
C          3.64901        1.29830       -0.83560
C          2.81301        0.58076       -1.72879
C          1.58361        0.14626       -1.26622
C          1.15029        0.46101       -0.00602
C          1.90390        1.25170        0.82065
C          3.14493        1.71815        0.42223
O          4.99866        1.56922       -1.18501
C          3.21762        0.26303       -3.17630
H          0.92501       -0.42745       -1.89481
H          1.50707        1.50154        1.78852
C          3.93191        2.64869        1.35769
C         -3.59972       -3.94437       -1.21400
C         -2.49062       -6.10086       -0.70140
C         -3.83397       -4.92424        1.07877
C          2.17426       -5.94805        0.80319
C          3.24005       -3.71616        0.97748
C          2.15336       -4.71304        3.00169
C         -0.93150       -6.33203        2.48097
H         -4.40276       -4.53876       -1.64907
H         -4.05068       -3.03060       -0.83025
H         -2.91027       -3.67584       -2.01405
H         -1.77201       -5.97776       -1.51099
H         -2.04258       -6.75072        0.04623
H         -3.36664       -6.61211       -1.09970
H         -4.73526       -5.45137        0.76688
H         -3.36919       -5.49720        1.87760
H         -4.13192       -3.96081        1.49174
H          2.05788       -5.85974       -0.27647
H          3.14689       -6.39634        1.00440
H          1.41405       -6.63580        1.16524
H          3.32476       -2.77993        1.52730
H          4.18090       -4.24996        1.10952
H          3.13341       -3.48312       -0.08177
H          3.09771       -5.17582        3.28721
H          2.09484       -3.73830        3.48555
H          1.34609       -5.32643        3.39486
H         -1.14577       -5.41720        3.03495
H         -1.82497       -6.95529        2.44834
H         -0.14570       -6.88978        2.99010
C          5.90883        0.54215       -0.81259
C          4.13966        1.35488       -3.74844
C          3.92052       -1.10218       -3.21768
C          1.97009        0.20603       -4.08826
C          4.78493        3.64632        0.55328
C          2.97125        3.48349        2.23496
C          4.82796        1.80547        2.27700
H          5.08067        1.40423       -3.20645
H          4.37226        1.16251       -4.79550
H          3.66366        2.33260       -3.68062
H          4.21185       -1.36083       -4.23533
H          4.81592       -1.10334       -2.60049
H          3.26102       -1.88593       -2.84548
H          1.33760       -0.64921       -3.85560
H          1.37243        1.11136       -3.98475
H          2.25924        0.11363       -5.13477
H          5.54575        3.13547       -0.03184
H          4.16129        4.21689       -0.13424
H          5.29320        4.34883        1.21327
H          2.24433        4.01101        1.61853
H          2.43132        2.86233        2.94810
H          3.52160        4.22674        2.81136
H          5.54106        1.21943        1.70222
H          4.22948        1.11281        2.86839
H          5.38898        2.43888        2.96366
H          6.68102        0.95703       -0.16490
H          5.38565       -0.25880       -0.28853
H          6.39142        0.13912       -1.70273
