59
-75.80010217
Cl         1.51200        0.77442        2.31907
P          1.61380       -0.11767       -0.77699
P         -1.58653       -0.21757       -0.84010
C          0.65751        0.34864       -2.28848
H          0.41510        1.41228       -2.21508
H          1.30274        0.21609       -3.16250
C         -0.59507       -0.47894       -2.37476
H         -0.35491       -1.54047       -2.46124
H         -1.21125       -0.21418       -3.23946
C          2.37891       -1.78459       -1.04786
H          1.84636       -2.20720       -1.90980
C          3.16994        0.86870       -0.63857
H          3.46993        0.82651        0.41548
C         -2.87148       -1.50334       -0.47292
H         -2.78031       -1.71906        0.59882
C         -2.67518        1.26914       -1.03638
H         -2.70471        1.49034       -2.11029
C          3.84795       -1.47733       -1.42458
H          4.51386       -1.93839       -0.68477
H          4.10755       -1.96793       -2.37453
C          4.14082        0.04917       -1.50693
H          4.04346        0.38802       -2.54833
H          5.18276        0.26671       -1.22522
C         -4.19292       -0.76613       -0.75588
H         -4.49843       -0.97284       -1.79090
H         -4.99903       -1.16966       -0.12426
C         -4.04713        0.76664       -0.55584
H         -4.15715        1.00669        0.51069
H         -4.85711        1.30871       -1.06725
C          2.21312       -2.68763        0.17438
H          2.58160       -3.69375       -0.07026
H          1.14188       -2.81288        0.38004
C          3.00065        2.31863       -1.07490
H          3.98995        2.79358       -1.13380
H          2.61117        2.33934       -2.10082
C         -2.69359       -2.78591       -1.27844
H         -3.60709       -3.39088       -1.19277
H         -2.61769       -2.52868       -2.34293
C         -2.14007        2.47116       -0.26878
H         -2.08443        2.21516        0.79734
H         -1.10307        2.65951       -0.57614
C          2.90455       -2.18198        1.43280
H          2.57751       -1.17410        1.68499
H          3.98869       -2.14597        1.32002
H          2.69347       -2.81655        2.29666
C          2.09609        3.11331       -0.14656
H          2.49620        3.13654        0.86880
H          1.10417        2.66558       -0.08421
H          1.97119        4.14700       -0.47674
C         -1.49095       -3.60447       -0.83742
H         -1.37566       -4.51690       -1.42691
H         -1.57627       -3.89815        0.21060
H         -0.56785       -3.03419       -0.93378
C         -2.97698        3.72614       -0.46495
H         -3.02670        4.00558       -1.51906
H         -4.00254        3.57683       -0.12269
H         -2.57014        4.57914        0.08296
Cl        -1.74717        0.11758        2.28676
Pd        -0.02996        0.09004        0.84301
