59
-75.79993214
Cl         1.52444        0.74207        2.32170
P          1.62138       -0.11790       -0.77089
P         -1.59367       -0.21879       -0.83228
C          0.65631        0.34574       -2.27821
H          0.41138        1.40870       -2.20429
H          1.29909        0.21513       -3.15426
C         -0.59481       -0.48494       -2.36191
H         -0.35215       -1.54633       -2.44241
H         -1.20941       -0.22621       -3.22951
C          2.39027       -1.78155       -1.05074
H          1.85848       -2.19996       -1.91522
C          3.17407        0.87376       -0.63627
H          3.47739        0.83144        0.41684
C         -2.88171       -1.50144       -0.46611
H         -2.79440       -1.71477        0.60643
C         -2.67891        1.26888       -1.03806
H         -2.70490        1.48538       -2.11302
C          3.85841       -1.46882       -1.42623
H          4.52560       -1.92704       -0.68585
H          4.12059       -1.95852       -2.37594
C          4.14535        0.05877       -1.50844
H          4.04351        0.39803       -2.54929
H          5.18733        0.27996       -1.22969
C         -4.20103       -0.76275       -0.75521
H         -4.50394       -0.97218       -1.79046
H         -5.00965       -1.16279       -0.12459
C         -4.05306        0.77049       -0.55959
H         -4.16545        1.01414        0.50588
H         -4.86067        1.31238       -1.07494
C          2.22590       -2.69254        0.16571
H          2.59369       -3.69720       -0.08590
H          1.15480       -2.81865        0.37163
C          2.99778        2.32350       -1.07038
H          3.98505        2.80232       -1.13195
H          2.60485        2.34389       -2.09501
C         -2.70252       -2.78605       -1.26806
H         -3.61727       -3.38949       -1.18495
H         -2.62164       -2.53123       -2.33277
C         -2.14376        2.47336       -0.27435
H         -2.09115        2.22191        0.79298
H         -1.10565        2.65871       -0.57987
C          2.91902       -2.19553        1.42656
H          2.70629       -2.83393        2.28719
H          2.59481       -1.18809        1.68381
H          4.00324       -2.16183        1.31385
C          2.09320        3.11366       -0.13812
H          1.10297        2.66251       -0.07349
H          1.96375        4.14739       -0.46642
H          2.49629        3.13681        0.87605
C         -1.50291       -3.60528       -0.82000
H         -1.38521       -4.51828       -1.40814
H         -1.59401       -3.89803        0.22778
H         -0.57887       -3.03575       -0.91179
C         -2.97808        3.72885       -0.47796
H         -2.57093        4.58363        0.06697
H         -3.02510        4.00362       -1.53342
H         -4.00462        3.58282       -0.13723
Cl        -1.76386        0.13584        2.26446
Pd        -0.02828        0.09309        0.84184
