171
-217.84279720
P         -1.62018        0.38627       -0.43223
P          1.61732       -0.38247       -0.43829
C         -0.94036        1.34159       -1.78788
C          0.92866       -1.33463       -1.79110
C         -0.11608        0.74158       -2.73276
C          0.49095        1.55340       -3.71008
C          0.20673        2.90870       -3.73873
C         -0.64716        3.47596       -2.81696
C         -1.20900        2.68797       -1.83180
C          1.19264       -2.68187       -1.83520
C          0.62772       -3.46769       -2.82036
C         -0.22391       -2.89709       -3.74219
C         -0.50403       -1.54090       -3.71262
C          0.10516       -0.73165       -2.73455
Cl         1.60019        0.43265        2.72990
Cl        -1.55881       -0.42939        2.77701
C         -1.42584       -0.96109       -4.72716
C          1.41641        0.97854       -4.72408
H         -0.86755        4.53020       -2.85793
H         -1.86090        3.12522       -1.09260
H          1.84312       -3.12126       -1.09590
H          0.84469       -4.52261       -2.86187
H          0.66291        3.52192       -4.49753
H         -0.68148       -3.50842       -4.50167
C         -3.97952       -3.30564       -1.55177
C         -2.91398       -3.42757       -0.66734
C         -2.17960       -2.28597       -0.37564
C         -2.51140       -1.07992       -0.94031
C         -3.56755       -0.97440       -1.81151
C         -4.33309       -2.09027       -2.12804
H         -4.55557       -4.17878       -1.78939
H         -1.34780       -2.33266        0.30625
H         -3.80617       -0.01065       -2.22989
C         -4.18697        2.86607        2.37686
C         -4.78196        1.83381        1.66028
C         -3.98819        1.11378        0.77753
C         -2.65798        1.41475        0.62426
C         -2.08771        2.43899        1.33933
C         -2.84035        3.18213        2.23833
H         -4.78343        3.42927        3.06823
H         -4.40714        0.29633        0.21759
H         -1.03679        2.64197        1.21879
C          4.18026       -2.88266        2.35516
C          2.82477       -3.17070        2.24461
C          2.07260       -2.42350        1.34840
C          2.65163       -1.41920        0.61258
C          3.99035       -1.14492        0.73921
C          4.78443       -1.87219        1.61568
H          4.77687       -3.45069        3.04243
H          1.01606       -2.60647        1.24683
H          4.41664       -0.34299        0.16276
C          3.98736        3.29968       -1.56924
C          2.92231        3.42680       -0.68497
C          2.18550        2.28778       -0.38977
C          2.51405        1.07910       -0.95079
C          3.56879        0.96884       -1.82311
C          4.33748        2.08179       -2.14240
H          4.56550        4.17072       -1.80947
H          1.35363        2.33924        0.29163
H          3.80327        0.00390       -2.24111
Pd        -0.00235        0.02440        1.21056
C         -2.40224       -4.57079        1.51232
C         -2.52802       -4.76165       -0.01241
C         -1.18213       -5.22773       -0.59007
C         -3.58288       -5.85380       -0.27495
H         -2.15965       -5.51230        2.00474
H         -1.61982       -3.85677        1.76370
H         -3.33756       -4.20119        1.93191
H         -0.40782       -4.48096       -0.42136
H         -0.85925       -6.16200       -0.13116
H         -1.26171       -5.38838       -1.66492
H         -3.31531       -6.77942        0.23465
H         -4.56300       -5.54582        0.08894
H         -3.66259       -6.07813       -1.33837
C         -5.08950       -1.48905       -4.44651
C         -5.55285       -1.93827       -3.05023
C         -6.50577       -0.88235       -2.45909
C         -6.32851       -3.26200       -3.19585
H         -4.43388       -2.23659       -4.89169
H         -5.94028       -1.35023       -5.11343
H         -4.54647       -0.54590       -4.39769
H         -6.81151       -1.16148       -1.45089
H         -6.02877        0.09548       -2.40895
H         -7.40374       -0.78165       -3.06842
H         -5.70486       -4.03627       -3.64228
H         -6.68347       -3.61671       -2.22833
H         -7.19892       -3.13090       -3.83869
C         -6.99538        1.76549        0.49485
C         -6.26385        1.46226        1.81391
C         -6.93863        2.25927        2.94694
C         -6.38403       -0.03929        2.14116
H         -6.92437        2.82495        0.24941
H         -6.56189        1.20309       -0.33051
H         -8.05100        1.50317        0.56292
H         -6.43723        2.08592        3.89899
H         -6.92624        3.32876        2.73803
H         -7.98045        1.96038        3.06221
H         -7.42473       -0.32198        2.29852
H         -5.99290       -0.65735        1.33406
H         -5.82741       -0.28052        3.04649
C         -3.13341        4.97902        4.02003
C         -2.14726        4.26675        3.07498
C         -1.52630        5.31626        2.13621
C         -1.04112        3.61089        3.92413
H         -2.62425        5.74747        4.60163
H         -3.93234        5.46442        3.45977
H         -3.58006        4.27631        4.72316
H         -1.03748        6.10835        2.70318
H         -0.78062        4.86578        1.48438
H         -2.29033        5.77169        1.50651
H         -0.53182        4.34986        4.54220
H         -1.46167        2.85025        4.58142
H         -0.29294        3.12759        3.29724
C          3.10703       -4.93296        4.06237
C          2.12418       -4.23035        3.10664
C          1.48854       -5.29182        2.19190
C          1.02870       -3.54619        3.94762
H          2.59136       -5.67952        4.66630
H          3.89507       -5.44359        3.50919
H          3.56845       -4.21919        4.74455
H          0.99089       -6.06541        2.77646
H          0.74779       -4.84540        1.53179
H          2.24560       -5.77007        1.57074
H          0.51712       -4.26689        4.58507
H          1.45973       -2.77480        4.58528
H          0.28029       -3.07062        3.31520
C          6.97618       -1.86575        0.40800
C          6.27686       -1.53224        1.73723
C          6.95544       -2.33223        2.86589
C          6.43654       -0.03043        2.04575
H          8.03837       -1.62593        0.45309
H          6.87749       -2.92602        0.17599
H          6.53934       -1.30313       -0.41542
H          6.47683       -2.13724        3.82545
H          6.91473       -3.40333        2.66923
H          8.00582       -2.05600        2.95761
H          6.04214        0.58774        1.24034
H          5.90431        0.23231        2.95970
H          7.48621        0.23089        2.17858
C          1.19466        5.23133       -0.61578
C          2.53838        4.76367       -0.03443
C          3.59656        5.85230       -0.29793
C          2.40854        4.57762        1.49061
H          0.87362        6.16810       -0.16068
H          1.27597        5.38761       -1.69115
H          0.41820        4.48725       -0.44510
H          3.67925        6.07317       -1.36183
H          3.33021        6.78016        0.20822
H          4.57506        5.54288        0.06912
H          2.16954        5.52167        1.97991
H          1.62180        3.86844        1.74231
H          3.34110        4.20449        1.91321
C          6.34125        3.24303       -3.20588
C          5.55581        1.92449       -3.06566
C          5.08857        1.48433       -4.46350
C          6.50139        0.85907       -2.47964
H          6.69666        3.59233       -2.23656
H          7.21199        3.10756       -3.84736
H          5.72421        4.02310       -3.65137
H          5.93809        1.34074       -5.13099
H          4.53761        0.54561       -4.41783
H          4.43922        2.23892       -4.90600
H          6.80780        1.13004       -1.46943
H          6.01821       -0.11599       -2.43612
H          7.39940        0.75627       -3.08857
H         -0.89396       -0.72410       -5.64920
H          0.89236        0.76581       -5.65648
H         -1.89461       -0.04675       -4.36054
H         -2.22078       -1.66468       -4.97504
H          1.86858        0.05142       -4.36889
H          2.22369        1.67559       -4.94950
