64
-97.20957965
Cl        -1.44917       -1.49467       -2.58566
Cl         1.63157       -2.33217       -2.42467
P          1.96541       -0.55571        0.29056
C          2.35586       -2.15796        1.12732
C          3.66346       -0.04717       -0.23744
P         -1.25929       -0.10860        0.36412
C          1.25158        0.69213        1.41791
C         -0.18355        0.87845        1.47192
C         -0.45983        1.98489        2.37717
C          0.81180        2.48966        2.86560
C          1.87107        1.69345        2.27030
H         -1.44463        2.38895        2.61635
H          0.94757        3.32021        3.56162
Pd         0.24271       -1.09971       -1.16630
H          2.94402        1.81539        2.43188
C         -4.76306        2.49342       -0.93223
C         -4.50264        2.29052        0.40864
C         -3.45163        1.47597        0.79124
C         -2.66540        0.87622       -0.16651
C         -2.93881        1.05784       -1.50289
C         -3.98589        1.87278       -1.88990
H         -5.58062        3.12881       -1.23170
H         -5.11612        2.76534        1.15666
H         -3.24436        1.29885        1.83447
H         -2.34680        0.53960       -2.23768
H         -4.19761        2.01749       -2.93661
C         -2.73501       -3.87620        2.42882
C         -2.27694       -2.81257        3.18227
C         -1.83228       -1.66344        2.55318
C         -1.84921       -1.58974        1.17971
C         -2.30424       -2.64546        0.42519
C         -2.74994       -3.79518        1.04990
H         -3.08138       -4.77189        2.91823
H         -2.26527       -2.87673        4.25795
H         -1.47081       -0.82360        3.12499
H         -2.29197       -2.56442       -0.64995
H         -3.10457       -4.62541        0.46150
C          3.82595       -0.16676       -1.73760
H          3.80232        0.99198        0.08921
C          4.57176       -1.00761        0.55587
H          4.86622       -0.54337        1.50858
C          3.85764       -2.35780        0.83982
H          5.50780       -1.17197        0.00228
C          2.01924       -2.07251        2.60028
H          1.75116       -2.93323        0.63707
H          4.32908       -2.87538        1.68768
H          3.98672       -3.02591       -0.02420
H          2.58840       -1.27219        3.07751
H          0.95933       -1.85733        2.75342
H          2.25351       -3.00423        3.12068
H          4.80885        0.18015       -2.06478
H          3.72448       -1.20727       -2.05003
H          3.06648        0.40699       -2.27267
Fe         0.72863        2.54386        0.79465
C          0.35113        2.40447       -1.21902
C          1.70094        2.87217       -0.96503
C          1.62410        4.10820       -0.20483
C          0.22100        4.38728        0.04584
C         -0.55947        3.32761       -0.56831
H          0.06719        1.53840       -1.81950
H          2.61694        2.43404       -1.36493
H          2.46968        4.72202        0.11358
H         -0.17747        5.24727        0.58897
H         -1.64912        3.26006       -0.57566
