111
-148.55413885
P         -1.43807        2.65070        1.17231
P         -0.29856       -0.24307        0.51571
C         -0.94008        1.54134        2.52000
C         -0.50935        0.26238        2.23577
C         -0.27743        4.08613        1.06835
C          0.51333        4.04207       -0.22205
C         -0.95599        1.98582        3.82660
H         -1.25155        3.00006        4.03968
C         -0.56767        1.13739        4.84901
H         -0.58482        1.48328        5.86965
C         -0.15111       -0.14835        4.56245
H          0.15705       -0.80694        5.35774
C         -0.11101       -0.58335        3.24994
H          0.24650       -1.57143        3.00577
Pd        -1.60345        1.26083       -0.66124
Cl        -3.09850        2.65056       -1.58171
Cl        -1.55629       -0.20847       -2.36605
C         -1.20733        5.30867        1.20238
C         -3.02881        3.54215        1.49620
H          1.11994        3.13642       -0.28763
H         -0.15631        4.04954       -1.08455
H          1.18149        4.90180       -0.31153
H         -1.41721        5.70176        0.19818
H         -0.69429        6.12356        1.73506
H         -3.54340        3.59325        0.52794
C         -2.54876        4.94701        1.90243
C         -3.90201        2.83846        2.51316
H          0.38437        4.00543        1.94059
H         -2.41737        4.97741        2.99270
H         -3.32396        5.69573        1.67824
H         -4.84741        3.36604        2.65842
H         -4.12905        1.81713        2.19903
H         -3.40964        2.77984        3.48399
C         -0.90166       -4.70742       -0.16870
C         -1.75982       -4.00545        0.71555
C         -1.53254       -2.65348        0.91693
C         -0.53826       -1.99484        0.24126
C          0.22801       -2.64782       -0.68815
C          0.04369       -3.99510       -0.94970
O         -0.97001       -6.12381       -0.25281
C         -2.90586       -4.69498        1.47259
H         -2.12926       -2.09182        1.61501
H          0.97783       -2.08502       -1.21521
C          0.86486       -4.65965       -2.06614
C          3.69615        1.40459       -0.94310
C          3.39313        1.40017        0.44452
C          2.19499        0.83770        0.85147
C          1.28823        0.36430       -0.06095
C          1.51976        0.49228       -1.40566
C          2.69438        1.04512       -1.88342
O          5.01353        1.69248       -1.38314
C          4.30149        2.01536        1.52211
H          1.95269        0.77317        1.89819
H          0.74515        0.18446       -2.08632
C          2.81009        1.28606       -3.39793
C         -3.51509       -5.83527        0.63656
C         -2.37631       -5.24050        2.80752
C         -4.04698       -3.69524        1.76785
C          2.17017       -5.21786       -1.47993
C          0.06243       -5.78381       -2.74609
C          1.22035       -3.63158       -3.16466
C         -0.10070       -6.80335        0.64415
H         -3.85082       -5.46389       -0.33107
H         -2.79137       -6.62639        0.45702
H         -4.37004       -6.28049        1.14478
H         -1.58211       -5.96608        2.64974
H         -1.97155       -4.43460        3.41941
H         -3.17020       -5.72789        3.37288
H         -4.36692       -3.19205        0.85579
H         -4.91176       -4.20851        2.18776
H         -3.74344       -2.93878        2.49006
H          2.75715       -4.42254       -1.02105
H          1.97226       -5.96575       -0.71615
H          2.77879       -5.68216       -2.25550
H         -0.16007       -6.58913       -2.05043
H         -0.88370       -5.40170       -3.12797
H          0.61714       -6.21245       -3.58035
H          1.93373       -2.89200       -2.80458
H          1.67624       -4.12341       -4.02361
H          0.32845       -3.10999       -3.51121
H          0.57973       -7.44132        0.08042
H          0.47384       -6.08779        1.23367
H         -0.68575       -7.43698        1.31045
C          5.82454        0.53305       -1.46856
C          4.95192        0.89010        2.34293
C          5.39809        2.91176        0.92153
C          3.45526        2.90543        2.45957
C          1.52687        1.98362       -3.90237
C          3.99208        2.20252       -3.75753
C          2.96898       -0.06211       -4.11904
H          4.19484        0.26443        2.81470
H          5.56641        0.25020        1.71209
H          5.58744        1.29812        3.12847
H          5.96976        3.41105        1.70349
H          6.09628        2.33166        0.32257
H          4.96094        3.67532        0.27901
H          4.08565        3.40219        3.19659
H          2.93504        3.67524        1.89063
H          2.71063        2.32903        3.00599
H          0.64852        1.35090       -3.78704
H          1.34993        2.90745       -3.35242
H          1.61009        2.23259       -4.95984
H          4.94253        1.73085       -3.51924
H          3.99798        2.43746       -4.82162
H          3.93517        3.13832       -3.20257
H          3.85831       -0.58811       -3.77595
H          3.05548        0.07978       -5.19594
H          2.10861       -0.70419       -3.93496
H          5.38230       -0.18118       -2.16192
H          6.81681        0.81334       -1.82261
H          5.91033        0.06552       -0.48866
