111
-148.55456847
P         -2.47632        2.12636        0.99925
P          0.10459        0.35182        0.54992
C         -1.39619        1.74137        2.40221
C         -0.25615        0.99600        2.19422
C         -3.15216        3.84612        1.09800
C         -2.51034        4.74523        0.06392
C         -1.71295        2.17473        3.67368
H         -2.61581        2.74093        3.83420
C         -0.87754        1.86651        4.73364
H         -1.12343        2.20460        5.72706
C          0.26876        1.12468        4.52079
H          0.91795        0.88365        5.34639
C          0.57886        0.68445        3.24644
H          1.46254        0.09308        3.06357
Pd        -1.32645        1.47577       -0.88627
Cl        -2.93282        2.30710       -2.20455
Cl         0.09947        0.91363       -2.53596
C         -4.66678        3.63379        0.91298
C         -4.04900        1.15275        1.00263
H         -2.69425        4.36900       -0.94359
H         -2.90967        5.76092        0.11455
H         -1.42755        4.79822        0.20097
H         -4.91428        3.77174       -0.14857
H         -5.23196        4.40986        1.45113
H         -4.19421        0.80626       -0.02946
C         -5.10697        2.21149        1.36384
C         -3.97023       -0.01932        1.95646
H         -2.93694        4.20796        2.11148
H         -5.25993        2.20216        2.45185
H         -6.08099        1.94415        0.92645
H         -4.90669       -0.58154        1.97776
H         -3.16986       -0.70542        1.67101
H         -3.76348        0.32073        2.97290
C         -1.20541       -3.98498        0.09135
C         -1.21001       -3.39292        1.38110
C         -0.79553       -2.07678        1.50120
C         -0.46444       -1.33938        0.39508
C         -0.56957       -1.87338       -0.86150
C         -0.96974       -3.18316       -1.05424
O         -1.39792       -5.38512       -0.04922
C         -1.61953       -4.16787        2.64347
H         -0.71377       -1.61070        2.46702
H         -0.32118       -1.24132       -1.69641
C         -1.10392       -3.71438       -2.48933
C          4.43566        0.77290       -0.78407
C          3.82312       -0.50592       -0.76625
C          2.50632       -0.59370       -0.34951
C          1.82783        0.50910        0.09853
C          2.44505        1.72948        0.17731
C          3.76402        1.88733       -0.21788
O          5.70242        0.94336       -1.40336
C          4.53968       -1.78117       -1.23692
H          1.98158       -1.53173       -0.39090
H          1.87200        2.56597        0.53926
C          4.42771        3.26516       -0.06747
C         -2.70196       -5.21497        2.32370
C         -0.38164       -4.85163        3.24318
C         -2.21723       -3.21436        3.70309
C         -1.52270       -2.57888       -3.45196
C          0.25078       -4.27319       -2.95088
C         -2.18882       -4.80240       -2.58063
C         -0.19391       -6.14110       -0.00966
H         -3.04033       -5.71814        3.22912
H         -3.56500       -4.74345        1.85478
H         -2.32842       -5.97715        1.64436
H          0.06187       -5.55163        2.53922
H          0.37847       -4.11450        3.50104
H         -0.63926       -5.40192        4.14778
H         -1.47113       -2.52428        4.09407
H         -3.03723       -2.63307        3.28314
H         -2.60789       -3.77618        4.55124
H         -2.41280       -2.06819       -3.08551
H         -0.73168       -1.84077       -3.57526
H         -1.74718       -2.97403       -4.44232
H          0.58126       -5.08709       -2.30992
H          0.19052       -4.65061       -3.97130
H          1.01609       -3.49800       -2.92257
H         -1.92712       -5.67511       -1.98775
H         -3.14267       -4.42410       -2.21452
H         -2.32709       -5.13261       -3.60985
H          0.66365       -5.48419        0.14168
H         -0.24450       -6.86601        0.80263
H         -0.07279       -6.68673       -0.94526
C          5.63076        1.26619       -2.78662
C          6.04732       -1.71387       -0.93420
C          3.98616       -3.02326       -0.50041
C          4.30718       -1.96542       -2.74435
C          3.84190        4.02238        1.14614
C          5.94154        3.13085        0.17866
C          4.16742        4.09397       -1.33459
H          6.21792       -1.54409        0.12837
H          6.54503       -2.64208       -1.21384
H          6.52647       -0.90606       -1.48160
H          4.01299       -2.87793        0.57921
H          2.95998       -3.24258       -0.79200
H          4.57922       -3.90727       -0.73370
H          3.24189       -2.03222       -2.96381
H          4.70815       -1.12857       -3.31075
H          4.78473       -2.87604       -3.10510
H          3.89512        3.41111        2.04669
H          4.39628        4.94193        1.33251
H          2.80272        4.30401        0.98327
H          6.13449        2.50691        1.05068
H          6.44412        2.67830       -0.67231
H          6.39859        4.10505        0.35054
H          3.09755        4.22022       -1.49890
H          4.58082        3.60860       -2.21530
H          4.61619        5.08362       -1.25344
H          6.15926        0.50985       -3.36664
H          4.59067        1.31399       -3.11191
H          6.11208        2.22775       -2.96402
