111
-148.55458680
P         -1.56471        2.78018       -0.32166
P         -0.51725       -0.12855        0.42239
C         -1.72310        2.15913        1.37884
C         -1.33366        0.87125        1.68280
C         -0.31313        4.14090       -0.38463
C          0.87410        3.73643       -1.23250
C         -2.19998        2.98385        2.37775
H         -2.46106        4.00337        2.14626
C         -2.31392        2.50662        3.67211
H         -2.69086        3.14995        4.45037
C         -1.93826        1.21072        3.96925
H         -2.02121        0.84112        4.97806
C         -1.43523        0.39388        2.97276
H         -1.10208       -0.60791        3.19443
Pd        -1.16953        0.86736       -1.55736
Cl        -2.15119        1.83821       -3.31989
Cl        -0.59935       -1.06227       -2.56547
C         -1.10961        5.33779       -0.94317
C         -3.06422        3.69484       -0.90843
H          1.60422        4.54547       -1.30935
H          1.38156        2.86318       -0.81799
H          0.55523        3.47833       -2.24447
H         -0.89285        5.43305       -2.01596
H         -0.75842        6.27664       -0.48915
H         -3.15993        3.45681       -1.97564
C         -2.64282        5.16594       -0.74389
C         -4.32496        3.29615       -0.17135
H         -0.01134        4.32566        0.65475
H         -2.92714        5.50864        0.26035
H         -3.20448        5.80490       -1.44256
H         -5.19728        3.82640       -0.56008
H         -4.51256        2.22383       -0.26198
H         -4.25151        3.52612        0.89167
C         -0.99653       -4.63104        0.92806
C          0.29299       -4.07671        0.71400
C          0.39567       -2.70569        0.55118
C         -0.70051       -1.89131        0.66516
C         -1.92814       -2.40994        0.98440
C         -2.10196       -3.77229        1.17071
O         -1.19240       -6.03230        0.82598
C          1.58666       -4.90673        0.65309
H          1.34561       -2.25668        0.31911
H         -2.75999       -1.73291        1.08429
C         -3.47893       -4.26371        1.64967
C          3.76321        1.38966        0.06879
C          3.25281        0.48947       -0.90383
C          1.95149        0.04191       -0.76012
C          1.19927        0.38223        0.33241
C          1.72724        1.15517        1.33250
C          3.02116        1.64187        1.25338
O          4.96502        2.09997       -0.18351
C          4.04787       -0.00886       -2.12129
H          1.48651       -0.54624       -1.53261
H          1.10446        1.40047        2.17547
C          3.56073        2.43277        2.45635
C          2.05362       -5.01758       -0.80762
C          2.68899       -4.20829        1.48099
C          1.40448       -6.31476        1.24583
C         -3.43269       -5.70576        2.18460
C         -3.96739       -3.36946        2.81121
C         -4.48549       -4.17683        0.49071
C         -1.51187       -6.44873       -0.49116
H          2.99155       -5.56800       -0.87639
H          1.31670       -5.53362       -1.41949
H          2.21039       -4.03050       -1.24080
H          2.35079       -4.03387        2.50201
H          3.58845       -4.82189        1.52529
H          2.97415       -3.24948        1.05121
H          2.35173       -6.85247        1.27959
H          1.00964       -6.25673        2.25953
H          0.71198       -6.90618        0.65159
H         -2.67459       -5.80348        2.96087
H         -4.39314       -5.99884        2.60793
H         -3.19306       -6.41263        1.39387
H         -3.23255       -3.34875        3.61554
H         -4.14247       -2.34461        2.48840
H         -4.90467       -3.74400        3.22195
H         -4.18375       -4.80962       -0.34153
H         -5.47712       -4.49489        0.81153
H         -4.56420       -3.15564        0.11922
H         -2.42970       -5.96702       -0.82357
H         -0.70835       -6.17849       -1.17389
H         -1.64716       -7.53043       -0.50346
C          4.74815        3.32816       -0.85919
C          5.55773        0.24870       -1.97983
C          3.86078       -1.53582       -2.26443
C          3.52156        0.68189       -3.39073
C          5.08840        2.60784        2.40672
C          2.88312        3.81275        2.50298
C          3.23743        1.66781        3.75908
H          6.11124       -0.19651       -2.80624
H          5.77732        1.31362       -1.97317
H          5.93428       -0.17583       -1.04986
H          4.47492       -1.92838       -3.07440
H          4.14919       -2.04626       -1.34595
H          2.82751       -1.79711       -2.48631
H          2.46009        0.48043       -3.53218
H          3.64888        1.76110       -3.33435
H          4.05072        0.32729       -4.27473
H          5.45917        3.08208        3.31512
H          5.58225        1.64255        2.30082
H          5.38806        3.22921        1.56639
H          3.09138        4.38504        1.60107
H          1.80154        3.71260        2.58953
H          3.23545        4.39088        3.35677
H          3.63826        0.65533        3.71945
H          2.16498        1.59901        3.93355
H          3.67453        2.16892        4.62239
H          4.13066        3.98688       -0.25112
H          5.70829        3.80875       -1.04785
H          4.24244        3.15069       -1.80669
