111
-148.55806818
P         -2.59613        2.17806        0.26599
P         -0.02798        0.34038        0.43799
C         -1.72108        2.00516        1.84313
C         -0.58520        1.22786        1.90391
C         -3.24314        3.89515        0.02972
C         -2.42350        4.65336       -0.99168
C         -2.18299        2.64005        2.97837
H         -3.08387        3.22953        2.93073
C         -1.49405        2.50449        4.17133
H         -1.85304        3.00045        5.05834
C         -0.34777        1.73492        4.22650
H          0.18957        1.63096        5.15475
C          0.10669        1.09169        3.08911
H          0.99819        0.48515        3.11643
Pd        -1.20308        1.27378       -1.32740
Cl        -2.62009        1.94124       -2.92955
Cl         0.26958        0.32225       -2.72762
C         -4.71031        3.65308       -0.37244
C         -4.17339        1.21505        0.20029
H         -2.44731        4.14925       -1.95894
H         -2.80583        5.66622       -1.13854
H         -1.37683        4.72585       -0.68613
H         -4.77436        3.62505       -1.46900
H         -5.33889        4.50129       -0.06116
H         -4.17010        0.69265       -0.76554
C         -5.25112        2.31548        0.21018
C         -4.26168        0.23079        1.34711
H         -3.19149        4.38846        1.00850
H         -5.58427        2.47512        1.24490
H         -6.14448        1.98087       -0.33879
H         -3.43109       -0.47892        1.32664
H         -4.22151        0.75042        2.30622
H         -5.19477       -0.33662        1.31610
C         -1.06774       -4.09473        0.64157
C         -0.20551       -3.52323        1.61427
C          0.08878       -2.17323        1.51645
C         -0.48730       -1.38876        0.55103
C         -1.42207       -1.91071       -0.30510
C         -1.76803       -3.25045       -0.26010
O         -1.16357       -5.50446        0.51548
C          0.42257       -4.31291        2.77489
H          0.79519       -1.72122        2.19182
H         -1.87453       -1.26475       -1.03659
C         -2.88968       -3.73241       -1.19558
C          4.42771        0.91351       -0.31255
C          3.56875        2.04036       -0.24013
C          2.22599        1.82723        0.02809
C          1.72235        0.55800        0.14009
C          2.52724       -0.53543       -0.04395
C          3.87994       -0.39433       -0.30080
O          5.83590        1.09092       -0.36945
C          4.07049        3.47896       -0.44165
H          1.54825        2.65500        0.15051
H          2.07984       -1.51164        0.01255
C          4.73171       -1.65072       -0.54060
C          0.24653       -3.51975        4.08882
C         -0.24792       -5.68181        2.98395
C          1.92328       -4.51110        2.50358
C         -2.36849       -3.76480       -2.64199
C         -3.41931       -5.12344       -0.80668
C         -4.08379       -2.75571       -1.11235
C         -0.19549       -6.04231       -0.37021
H         -0.80536       -3.29608        4.26444
H          0.61539       -4.09151        4.94000
H          0.79245       -2.57803        4.07041
H          0.14502       -6.18075        3.86952
H         -1.32434       -5.56760        3.10699
H         -0.07741       -6.33849        2.13422
H          2.42912       -3.55204        2.39799
H          2.39882       -5.05269        3.32085
H          2.08693       -5.07519        1.58732
H         -1.53420       -4.45597       -2.74437
H         -3.15170       -4.07922       -3.33119
H         -2.02315       -2.77951       -2.95372
H         -2.65627       -5.88692       -0.93818
H         -3.72992       -5.13808        0.23744
H         -4.27499       -5.40381       -1.42048
H         -4.92180       -3.11510       -1.70893
H         -4.42476       -2.65241       -0.08273
H         -3.82415       -1.76607       -1.48394
H         -0.32038       -7.12390       -0.42572
H         -0.31881       -5.61415       -1.36358
H          0.80711       -5.81338       -0.01265
C          6.46433        1.17018        0.90362
C          5.25448        3.52074       -1.42494
C          2.95547        4.36357       -1.04547
C          4.48523        4.06912        0.91445
C          5.32070       -2.13019        0.79458
C          3.87244       -2.79048       -1.13510
C          5.86043       -1.36496       -1.54748
H          6.11528        2.98455       -1.03356
H          4.97978        3.06275       -2.37457
H          5.56620        4.54649       -1.62016
H          2.14082        4.52377       -0.34083
H          3.34345        5.34594       -1.31374
H          2.54544        3.90800       -1.94653
H          4.83665        5.09456        0.80293
H          3.64304        4.07401        1.60605
H          5.28334        3.48809        1.37019
H          5.96112       -1.37190        1.23808
H          4.52757       -2.35227        1.50792
H          5.91448       -3.03358        0.65750
H          4.49752       -3.63336       -1.42896
H          3.14753       -3.16724       -0.41486
H          3.33370       -2.44916       -2.01868
H          5.45182       -0.98495       -2.48322
H          6.42847       -2.26865       -1.76681
H          6.55658       -0.62381       -1.16232
H          5.72903        1.04769        1.69987
H          7.22234        0.39128        0.98473
H          6.95786        2.13605        1.00929
