111
-148.55576133
P         -2.17188        2.09506        1.51795
P          0.17113        0.17883        0.59140
C         -1.03364        1.41464        2.74673
C         -0.02650        0.56549        2.34335
C         -2.27825        3.93683        1.63420
C         -1.44634        4.60159        0.55819
C         -1.17297        1.74031        4.08051
H         -1.95319        2.41960        4.38364
C         -0.30878        1.19694        5.01511
H         -0.41775        1.44728        6.05774
C          0.69157        0.33346        4.61212
H          1.36358       -0.09185        5.33928
C          0.83419        0.01888        3.27240
H          1.61346       -0.65023        2.94595
Pd        -1.46852        1.37348       -0.55443
Cl        -3.30189        2.31007       -1.43472
Cl        -0.54670        0.57638       -2.43862
C         -3.79144        4.19662        1.52497
C         -3.94758        1.64967        1.81204
H         -1.79256        4.30890       -0.43485
H         -1.50870        5.69050        0.62086
H         -0.39429        4.31637        0.63641
H         -4.04745        4.34351        0.46648
H         -4.05617        5.13969        2.02715
H         -4.30663        1.23540        0.86060
C         -4.61658        3.00941        2.09615
C         -4.10488        0.64292        2.93390
H         -1.91256        4.20629        2.63364
H         -4.72294        3.13072        3.18275
H         -5.64274        3.01993        1.69895
H         -5.14552        0.33039        3.04740
H         -3.49827       -0.24816        2.76318
H         -3.78697        1.06941        3.88622
C         -1.28058       -4.02692       -0.38091
C         -2.16964       -3.07433        0.18129
C         -1.66880       -1.82399        0.50720
C         -0.37700       -1.48064        0.20132
C          0.43816       -2.34836       -0.47790
C          0.00798       -3.62058       -0.81191
O         -1.65574       -5.39379       -0.46499
C         -3.65566       -3.37083        0.43584
H         -2.28837       -1.09088        0.99376
H          1.42244       -2.01597       -0.75340
C          0.94423       -4.54418       -1.60589
C          4.34507        0.99790       -1.04953
C          4.15541       -0.05279       -0.11592
C          2.87605       -0.28175        0.36287
C          1.82942        0.52974        0.00643
C          2.03489        1.61947       -0.79881
C          3.28673        1.90229       -1.31850
O          5.57714        1.11886       -1.74557
C          5.30285       -0.96105        0.35433
H          2.67801       -1.11834        1.00974
H          1.18992        2.23912       -1.04354
C          3.46017        3.14476       -2.20534
C         -4.50639       -2.11238        0.15129
C         -4.17983       -4.47762       -0.49750
C         -3.84446       -3.78649        1.90217
C          1.84319       -3.71978       -2.55545
C          1.83709       -5.32219       -0.62780
C          0.14409       -5.52372       -2.48361
C         -1.35247       -6.13893        0.70740
H         -5.57013       -2.34039        0.21351
H         -4.30715       -1.31901        0.86758
H         -4.30332       -1.72643       -0.84736
H         -5.25115       -4.62712       -0.36562
H         -3.99894       -4.21728       -1.53984
H         -3.68946       -5.42771       -0.30184
H         -4.89220       -3.99425        2.11776
H         -3.26838       -4.68063        2.13237
H         -3.51189       -2.99559        2.57397
H          2.55653       -3.10693       -2.00742
H          2.41965       -4.37440       -3.20867
H          1.24182       -3.06365       -3.18414
H          2.42304       -4.63904       -0.01324
H          1.24083       -5.94087        0.03946
H          2.52823       -5.97297       -1.16282
H          0.80758       -6.13075       -3.09902
H         -0.45325       -6.20067       -1.87758
H         -0.53162       -4.98201       -3.14461
H         -2.27457       -6.48890        1.17095
H         -0.74928       -7.00682        0.44060
H         -0.80354       -5.52048        1.41870
C          5.63006        0.37573       -2.95705
C          5.05285       -1.44875        1.79968
C          5.39393       -2.18707       -0.56688
C          6.64327       -0.20372        0.36401
C          2.48426        4.26369       -1.77401
C          4.88309        3.71967       -2.08612
C          3.15944        2.76879       -3.66427
H          5.92110       -1.98464        2.18257
H          4.85892       -0.60725        2.46432
H          4.20665       -2.13195        1.85489
H          6.20789       -2.84454       -0.26252
H          4.46875       -2.76137       -0.53543
H          5.56669       -1.89333       -1.59954
H          6.57306        0.69228        0.97981
H          7.44316       -0.82744        0.76229
H          6.93377        0.10250       -0.63773
H          2.57634        4.46886       -0.70776
H          2.69378        5.18797       -2.31193
H          1.44893        4.00024       -1.98521
H          5.62743        3.01572       -2.44969
H          4.98543        4.63608       -2.66681
H          5.11876        3.94798       -1.04724
H          3.83985        1.99934       -4.02112
H          3.25609        3.63440       -4.31900
H          2.14453        2.38348       -3.76038
H          4.68742       -0.14726       -3.12382
H          5.82392        1.04988       -3.79119
H          6.44348       -0.34795       -2.90783
