58
-89.85944295
P          1.57317        0.30625        0.80876
C          1.91204        1.99043        0.27762
C          1.97068        2.26696       -1.06940
C          2.18974        3.56150       -1.50056
C          2.35258        4.57342       -0.57548
C          2.30278        4.29186        0.77568
C          2.08312        2.99468        1.20344
H          2.03953        2.76385        2.25557
H          1.84864        1.46241       -1.77621
C          3.12250       -0.61510        0.86138
C          3.36443       -1.57748        1.81725
C          4.56531       -2.26387        1.81933
C          5.52231       -1.98359        0.86490
C          5.28194       -1.01555       -0.08883
C          4.08011       -0.33086       -0.08616
H          3.88118        0.42482       -0.82863
H          2.62420       -1.78627        2.57051
C          0.78234        0.28326        2.47447
C          0.05672       -1.03787        2.74034
C         -1.42452       -0.99484        2.41768
P         -1.76280       -0.46910        0.68357
C         -3.11541       -1.44863        0.01376
C         -3.11125       -2.81416        0.18846
C         -4.12823       -3.58080       -0.35245
C         -5.13802       -2.97530       -1.07362
C         -5.12999       -1.60743       -1.26068
C         -4.11217       -0.84412       -0.71811
H         -4.08274        0.22150       -0.87716
H         -2.30346       -3.27984        0.73030
C         -2.20546        1.27258        0.74135
C         -3.42899        1.65080        1.24590
C         -3.75821        2.99294        1.31834
C         -2.85451        3.94812        0.89558
C         -1.62243        3.56452        0.40539
C         -1.30131        2.22278        0.33200
H         -0.33603        1.91446       -0.02363
H         -4.11990        0.89518        1.58514
Pd         0.10911       -0.69361       -0.70660
Cl         1.81907       -0.82065       -2.15826
Cl        -1.32852       -1.48641       -2.24628
H         -1.89679       -1.96649        2.57833
H         -1.94256       -0.28511        3.06618
H          0.52834       -1.83342        2.14649
H          0.19159       -1.34077        3.79077
H          1.58508        0.46250        3.19411
H          0.09484        1.12773        2.54915
H          2.23305        3.77860       -2.55515
H          2.43263        5.08177        1.49712
H          4.75343       -3.01733        2.56658
H          6.02648       -0.79463       -0.83589
H         -4.12685       -4.64994       -0.21746
H         -5.91065       -1.13526       -1.83419
H         -4.71769        3.29165        1.70750
H         -0.90774        4.30591        0.08808
H          2.52239        5.58437       -0.90845
H          6.45724       -2.51996        0.86483
H         -5.92852       -3.57212       -1.49868
H         -3.10907        4.99384        0.95358
