58
-89.86587949
P          1.71763        0.34953        0.76868
C          2.96775        1.60554        0.44769
C          4.19257        1.49837        1.06871
C          5.16038        2.46455        0.85840
C          4.89208        3.53897        0.03399
C          3.65830        3.65168       -0.57510
C          2.69341        2.68399       -0.36258
H          1.72751        2.76320       -0.83419
H          4.38563        0.66323        1.72361
C          2.27398       -1.30014        0.31075
C          1.36346       -2.33043        0.36062
C          1.74293       -3.61027        0.00170
C          3.03838       -3.85060       -0.41006
C          3.94822       -2.81334       -0.47093
C          3.56247       -1.53445       -0.11234
H          4.25861       -0.71555       -0.17852
H          0.34492       -2.12310        0.63884
C          1.38117        0.42232        2.57473
C          0.17503       -0.36900        3.04813
C         -1.15541        0.24323        2.63761
P         -1.64752       -0.06700        0.89282
C         -1.97520       -1.81079        0.59249
C         -2.03874       -2.72292        1.62201
C         -2.25443       -4.06019        1.34216
C         -2.40958       -4.47583        0.03443
C         -2.35558       -3.55736       -0.99465
C         -2.13912       -2.22224       -0.71056
H         -2.09316       -1.48894       -1.49952
H         -1.92197       -2.39212        2.64073
C         -3.12268        0.91284        0.60523
C         -4.34195        0.29570        0.44442
C         -5.47251        1.05829        0.21301
C         -5.37136        2.43390        0.14334
C         -4.14485        3.04813        0.30402
C         -3.01566        2.28286        0.53603
H         -2.04903        2.74689        0.65526
H         -4.40291       -0.77945        0.49460
Pd        -0.06568        0.47304       -0.71776
Cl         1.45989        0.73279       -2.34646
Cl        -1.79350        0.71315       -2.14083
H         -1.97790       -0.13956        3.24684
H         -1.14044        1.32490        2.78368
H          0.24143       -1.40212        2.68644
H          0.21021       -0.44952        4.14587
H          2.29635        0.07308        3.05910
H          1.27208        1.47723        2.83402
H          6.12081        2.37890        1.33961
H          3.44683        4.49076       -1.21740
H          1.02442       -4.41270        0.03373
H          4.95662       -2.99819       -0.80303
H         -2.30072       -4.77726        2.14530
H         -2.47906       -3.87843       -2.01584
H         -6.42885        0.57876        0.08370
H         -4.06536        4.12116        0.24474
H          5.64541        4.29173       -0.13214
H          3.33737       -4.84677       -0.69283
H         -2.57629       -5.51828       -0.18295
H         -6.25099        3.02919       -0.03999
