59
-75.79944808
Cl         1.69403        0.08966        2.37271
P          1.53407       -0.02415       -0.84572
P         -1.60982       -0.23942       -0.71825
C          0.55904       -0.21678       -2.41162
H          0.33537        0.78491       -2.78582
H          1.18827       -0.70448       -3.16252
C         -0.71728       -0.97458       -2.15695
H         -0.51445       -2.02136       -1.92186
H         -1.38391       -0.96156       -3.02435
C          3.02022       -1.12824       -0.76565
H          3.20259       -1.47032       -1.79156
C          2.35860        1.63013       -0.67211
H          2.09497        1.99197        0.32936
C         -3.23113       -1.05946       -0.37494
H         -3.39751       -0.96313        0.70511
C         -2.21832        1.45797       -1.14302
H         -1.85958        1.67408       -2.15629
C          4.13704       -0.17348       -0.30663
H          4.21075       -0.21997        0.78882
H          5.11310       -0.51652       -0.68252
C          3.85787        1.29009       -0.74035
H          4.20822        1.43762       -1.77110
H          4.43882        1.99628       -0.12790
C         -4.21568       -0.16163       -1.14397
H         -4.27672       -0.51364       -2.18343
H         -5.23214       -0.26830       -0.73437
C         -3.75581        1.32270       -1.11909
H         -4.13690        1.80014       -0.20622
H         -4.20443        1.88517       -1.95145
C          2.82720       -2.32301        0.16156
H          2.56086       -1.95563        1.16102
H          3.79127       -2.83449        0.29065
C          1.90599        2.63498       -1.72649
H          2.18826        2.25839       -2.71839
H          0.80983        2.68531       -1.73822
C         -3.25630       -2.52919       -0.77504
H         -4.29375       -2.89096       -0.75252
H         -2.94274       -2.61901       -1.82302
C         -1.67451        2.48080       -0.15162
H         -2.06301        2.24315        0.84813
H         -0.58649        2.36158       -0.06514
C          1.78031       -3.30560       -0.33323
H          1.67285       -4.16336        0.33468
H          2.03157       -3.68748       -1.32451
H          0.80432       -2.82848       -0.40933
C          2.48316        4.02513       -1.50625
H          3.57412        4.01177       -1.53592
H          2.19290        4.42125       -0.53122
H          2.14329        4.73512       -2.26378
C         -2.38427       -3.39481        0.12127
H         -2.73041       -3.36383        1.15614
H         -1.35184       -3.04527        0.12495
H         -2.37864       -4.44063       -0.19394
C         -2.01318        3.91547       -0.52767
H         -1.60792        4.17119       -1.50858
H         -3.09259        4.06942       -0.57589
H         -1.61092        4.63291        0.19119
Cl        -1.52243       -0.54545        2.48106
Pd         0.03594       -0.23830        0.89903
