111
-148.55519087
P         -1.57609        2.66815        1.14152
P         -0.38172       -0.20291        0.55510
C         -1.07999        1.59520        2.51989
C         -0.62752        0.31778        2.26354
C         -0.48704        4.15766        1.03595
C          0.36005        4.11282       -0.21833
C         -1.12757        2.05877        3.81899
H         -1.44599        3.07033        4.01114
C         -0.74502        1.23080        4.86034
H         -0.78575        1.59105        5.87532
C         -0.30556       -0.05343        4.60078
H         -0.00282       -0.69553        5.41148
C         -0.23666       -0.50830        3.29610
H          0.13636       -1.49535        3.07164
Pd        -1.67235        1.25620       -0.68081
Cl        -2.82569        2.84422       -1.76391
Cl        -1.64804       -0.23177       -2.36494
C         -1.48488        5.33191        1.08571
C         -3.22155        3.48152        1.38773
H          0.99210        4.99962       -0.30610
H          1.00828        3.23414       -0.23219
H         -0.27156        4.06502       -1.10775
H         -1.67748        5.67251        0.05911
H         -1.03641        6.19420        1.60188
H         -3.71129        3.46419        0.40519
C         -2.83058        4.92507        1.75191
C         -4.07923        2.76978        2.41239
H          0.13866        4.14249        1.93780
H         -2.74095        5.00458        2.84401
H         -3.63520        5.62167        1.47070
H         -4.24173        1.72571        2.13510
H         -3.60707        2.77722        3.39510
H         -5.05551        3.24880        2.51576
C         -0.71607       -4.69207       -0.11893
C         -1.89170       -3.89901       -0.07863
C         -1.76165       -2.54160        0.16754
C         -0.52549       -1.96456        0.29207
C          0.61691       -2.70798        0.14756
C          0.55790       -4.06938       -0.09893
O         -0.81448       -6.10873       -0.14694
C         -3.29346       -4.49137       -0.29284
H         -2.62874       -1.90989        0.25723
H          1.56462       -2.20328        0.22464
C          1.86483       -4.84353       -0.33273
C          3.63976        1.35413       -0.90859
C          3.26640        1.54095        0.44732
C          2.05413        1.02375        0.87106
C          1.20363        0.41040       -0.01063
C          1.50751        0.33302       -1.34370
C          2.70305        0.82734       -1.83414
O          4.95961        1.66511       -1.33086
C          4.16167        2.27600        1.45671
H          1.75569        1.09529        1.90188
H          0.77391       -0.09951       -2.00149
C          2.96451        0.77974       -3.34727
C         -4.23850       -3.43950       -0.91752
C         -3.24755       -5.68452       -1.26488
C         -3.87276       -4.93277        1.05940
C          2.92798       -3.93059       -0.98665
C          2.40741       -5.34502        1.01378
C          1.64346       -6.02866       -1.29016
C         -0.83941       -6.71269        1.14007
H         -3.79716       -3.00725       -1.81526
H         -5.19045       -3.89085       -1.19604
H         -4.45956       -2.63185       -0.22145
H         -4.24906       -6.06126       -1.47101
H         -2.79390       -5.39073       -2.21085
H         -2.66480       -6.50655       -0.85659
H         -4.87376       -5.34626        0.93905
H         -3.24949       -5.69206        1.52576
H         -3.93617       -4.08853        1.74554
H          3.26446       -3.14916       -0.30688
H          3.80841       -4.50523       -1.27337
H          2.53090       -3.45691       -1.88397
H          3.34143       -5.89012        0.87978
H          2.59733       -4.50995        1.68773
H          1.69767       -6.00903        1.50162
H          2.58234       -6.53663       -1.50914
H          0.96461       -6.76247       -0.86284
H          1.21521       -5.68604       -2.23154
H         -0.78732       -5.95109        1.91912
H         -1.75746       -7.28867        1.25535
H          0.00516       -7.39409        1.24085
C          5.86786        0.57513       -1.23645
C          4.97311        3.38805        0.76755
C          3.30837        2.95556        2.55193
C          5.10684        1.26737        2.12618
C          1.63764        0.90185       -4.13180
C          3.85758        1.95153       -3.79332
C          3.62636       -0.55913       -3.70619
H          5.55879        3.95270        1.49253
H          5.66369        2.97848        0.03441
H          4.31074        4.08249        0.25164
H          2.54942        3.59837        2.10767
H          2.81093        2.22579        3.18899
H          3.93077        3.57294        3.19922
H          5.74511        0.77962        1.39329
H          5.74827        1.75895        2.85720
H          4.54021        0.49182        2.64105
H          1.82722        1.00197       -5.20015
H          1.00817        0.02308       -4.00070
H          1.07472        1.77698       -3.80811
H          3.98869        1.95481       -4.87510
H          3.41455        2.90340       -3.50224
H          4.84510        1.89187       -3.34272
H          4.57187       -0.68429       -3.18373
H          3.82104       -0.62414       -4.77635
H          2.98182       -1.39293       -3.42935
H          5.36598       -0.30493       -0.83215
H          6.26685        0.34433       -2.22401
H          6.70015        0.84897       -0.58824
