105
-153.06451394
Cl         0.05870        1.96549        3.04747
Pd        -0.46535        1.31447        0.95229
P         -1.10481        0.51112       -1.16429
N         -0.67311       -0.99760       -1.96532
C          0.23446       -1.99308       -1.60435
C          0.35536       -2.47325       -0.27530
C          1.29705       -3.48622        0.00820
C          1.38447       -4.03481        1.41358
C          2.61786       -4.91042        1.68870
C          2.87781       -5.87771        0.53123
C          3.10346       -5.10329       -0.77489
C          2.08062       -4.02237       -1.01828
C          1.91416       -3.56031       -2.31743
C          1.00777       -2.57530       -2.60748
H          0.89906       -2.21960       -3.61725
H          2.51830       -3.98202       -3.10284
H          4.09951       -4.64499       -0.76553
H          3.73215       -6.53311        0.75278
H          3.49626       -4.26720        1.82608
H          1.37108       -3.19795        2.12012
C         -0.65628       -2.10783        0.74633
C         -0.25648       -1.50090        1.96804
C         -1.20759       -1.35623        2.98245
C         -2.50118       -1.77176        2.80355
C         -2.91371       -2.35691        1.61282
C         -4.34463       -2.82871        1.51212
C         -4.78385       -3.21778        0.09145
C         -3.68855       -4.02050       -0.61491
C         -2.39241       -3.20251       -0.71020
C         -1.99077       -2.52588        0.57850
H         -1.56926       -3.84425       -1.04834
H         -4.02223       -4.34388       -1.61111
H         -4.99662       -2.31148       -0.48860
H         -5.00325       -2.04839        1.91346
H         -3.21824       -1.64757        3.59738
H         -0.91373       -0.88674        3.90481
N          1.03912       -1.00146        2.17356
P          1.62454        0.22829        1.05595
C          2.59901       -0.30723       -0.33828
C          2.37482        0.28423       -1.55657
C          3.16681       -0.05529       -2.63792
C          4.19801       -0.97435       -2.49511
C          4.41590       -1.54861       -1.24912
C          3.62109       -1.20908       -0.16887
H          3.78905       -1.64299        0.80409
H          5.20951       -2.26629       -1.13094
C          5.02295       -1.37334       -3.66834
H          2.98427        0.38889       -3.60133
H          1.57425        0.99753       -1.65617
C          2.58536        1.50509        1.87348
C          3.29387        1.21483        3.01461
C          4.03628        2.20609        3.63068
C          4.07064        3.49189        3.10775
C          3.36321        3.75857        1.94304
C          2.62213        2.76631        1.32709
H          2.06890        2.97064        0.42344
H          3.39434        4.74881        1.52175
C          4.88523        4.55311        3.76179
H          4.59468        1.98617        4.52453
H          3.27029        0.21475        3.41626
H          1.17783       -0.57116        3.07878
H         -0.94763       -0.92203       -2.93677
C         -0.64366        1.88376       -2.23475
C         -0.93713        3.17369       -1.86283
C         -0.57421        4.23047       -2.67537
C          0.09293        4.00382       -3.87110
C          0.36932        2.69492       -4.24115
C          0.00179        1.64092       -3.42505
H          0.23228        0.62812       -3.70929
H          0.87544        2.50623       -5.17254
C          0.46590        5.13915       -4.75959
H         -0.80826        5.24038       -2.38473
H         -1.45387        3.34748       -0.93415
C         -2.90075        0.50476       -1.10624
C         -3.58092        0.71493       -2.28245
C         -4.96460        0.70929       -2.28957
C         -5.67581        0.49216       -1.11751
C         -4.97119        0.29240        0.06102
C         -3.58892        0.28322        0.06144
H         -3.04033        0.11803        0.97456
H         -5.51264        0.14761        0.98006
C         -7.16452        0.51225       -1.11496
H         -5.50066        0.87943       -3.20758
H         -3.02605        0.88730       -3.19156
Cl        -2.28492        2.64230        0.97114
H          3.10574       -5.79192       -1.62956
H          2.50455       -5.45826        2.63488
H          2.01505       -6.54573        0.41474
H          0.47129       -4.60602        1.61856
H         -3.49555       -4.94364       -0.05413
H         -2.50288       -2.43292       -1.48277
H         -4.47173       -3.68736        2.18226
H         -5.72781       -3.78054        0.11313
H          5.13638       -0.54519       -4.36931
H          6.02172       -1.68566       -3.36024
H          4.55979       -2.20480       -4.20147
H          5.91799        4.51988        3.41199
H          4.48781        5.54551        3.54434
H          4.89207        4.43037        4.84578
H          1.36465        4.91066       -5.33418
H         -0.33729        5.35958       -5.46403
H          0.66410        6.04280       -4.18147
H         -7.56521       -0.15703       -0.35222
H         -7.53749        1.51684       -0.91117
H         -7.56479        0.19293       -2.07824
