171
-217.84595450
P         -1.59913        0.39151       -0.37550
P          1.61164       -0.44145       -0.32110
C         -0.86277        1.28521       -1.74461
C          0.87902       -1.44120       -1.62151
C         -0.07981        0.61657       -2.67828
C          0.54352        1.36237       -3.69694
C          0.33187        2.72979       -3.76026
C         -0.46903        3.36948       -2.83758
C         -1.05935        2.64177       -1.82273
C          1.05882       -2.80211       -1.56787
C          0.44696       -3.62183       -2.49540
C         -0.35966       -3.06820       -3.46686
C         -0.55498       -1.69894       -3.53848
C          0.08984       -0.86092       -2.60847
Cl         1.54091        0.38603        2.87439
Cl        -1.60361       -0.49418        2.83025
C         -1.44297       -1.14381       -4.59687
C          1.40388        0.70299       -4.71749
H         -0.63200        4.43259       -2.90604
H         -1.67793        3.13203       -1.08804
H          1.67942       -3.22713       -0.79584
H          0.59436       -4.68864       -2.45430
H          0.80329        3.29495       -4.54655
H         -0.85293       -3.70349       -4.18316
C         -3.95759       -3.26486       -1.59644
C         -2.95059       -3.40120       -0.64944
C         -2.23691       -2.26397       -0.29463
C         -2.50982       -1.05900       -0.89178
C         -3.49489       -0.94325       -1.84146
C         -4.24781       -2.05239       -2.20983
H         -4.54824       -4.12608       -1.84862
H         -1.47005       -2.30489        0.45907
H         -3.67586        0.02275       -2.28148
C         -4.24822        3.01422        2.21211
C         -4.83605        2.03161        1.42512
C         -4.00496        1.25408        0.62912
C         -2.64966        1.47067        0.61161
C         -2.08756        2.45571        1.38569
C         -2.87663        3.23990        2.21633
H         -4.88101        3.60644        2.84593
H         -4.40809        0.45862        0.02864
H         -1.02017        2.59689        1.36367
C          4.44199       -2.81525        2.31103
C          3.08867       -3.13227        2.33047
C          2.24330       -2.41893        1.49144
C          2.73353       -1.41588        0.69294
C          4.07055       -1.10573        0.69810
C          4.95686       -1.80795        1.50430
H          5.11809       -3.35593        2.94612
H          1.18812       -2.63346        1.47445
H          4.41529       -0.29901        0.07646
C          3.81426        3.28776       -1.61660
C          2.84825        3.38907       -0.62280
C          2.15576        2.23685       -0.27622
C          2.43855        1.04133       -0.88860
C          3.40401        0.95440       -1.86100
C          4.11465        2.08552       -2.24580
H          4.36357        4.16422       -1.90403
H          1.39801        2.26507        0.48737
H          3.60480       -0.00631       -2.30388
Pd        -0.02035       -0.02247        1.30013
C         -1.42809       -4.72474        0.89426
C         -2.68603       -4.76339        0.00513
C         -2.47225       -5.82919       -1.08638
C         -3.89546       -5.14508        0.87600
H         -1.22114       -5.70809        1.31614
H         -0.55659       -4.41869        0.31644
H         -1.55361       -4.03143        1.72551
H         -1.64857       -5.54846       -1.74171
H         -2.23675       -6.79728       -0.64460
H         -3.36185       -5.95448       -1.70208
H         -3.73659       -6.10545        1.36613
H         -4.06467       -4.39476        1.64818
H         -4.80289       -5.21914        0.27747
C         -6.73348       -2.19609       -2.44436
C         -5.41529       -1.95734       -3.20265
C         -5.25589       -3.02283       -4.30433
C         -5.47772       -0.57082       -3.87294
H         -7.58908       -2.12630       -3.11581
H         -6.74836       -3.18310       -1.98313
H         -6.86288       -1.45697       -1.65439
H         -6.06146       -2.94931       -5.03476
H         -4.31206       -2.89795       -4.83306
H         -5.27691       -4.03044       -3.89154
H         -6.28961       -0.52845       -4.59884
H         -5.65491        0.21417       -3.13811
H         -4.55031       -0.34763       -4.39968
C         -6.79946        0.70155        0.50191
C         -6.35416        1.80901        1.47788
C         -7.07611        3.11365        1.09352
C         -6.75408        1.39252        2.90485
H         -6.53287        0.95422       -0.52421
H         -6.33867       -0.25329        0.75457
H         -7.88012        0.56465        0.53830
H         -6.78176        3.43594        0.09486
H         -8.15739        2.97702        1.09904
H         -6.83936        3.91838        1.78844
H         -6.50376        2.16797        3.62788
H         -7.82588        1.20659        2.97163
H         -6.23353        0.48122        3.19872
C         -1.19392        3.55870        4.04382
C         -2.20590        4.27613        3.12905
C         -3.23224        5.00770        4.01484
C         -1.47465        5.31762        2.26474
H         -0.41316        3.06671        3.46521
H         -0.71199        4.26259        4.72187
H         -1.69109        2.79647        4.64322
H         -2.73769        5.73353        4.66027
H         -3.95957        5.54763        3.40887
H         -3.76667        4.30682        4.65586
H         -0.70099        4.84806        1.66099
H         -2.16967        5.81698        1.58999
H         -0.99857        6.07693        2.88491
C          2.05850       -5.41063        2.34653
C          2.50645       -4.23270        3.22838
C          1.29791       -3.67529        4.00765
C          3.54254       -4.74256        4.24865
H          1.31866       -5.09071        1.61475
H          2.90506       -5.82793        1.80158
H          1.61706       -6.20511        2.94792
H          0.49041       -3.37980        3.33963
H          0.89926       -4.42107        4.69498
H          1.58630       -2.79952        4.58852
H          3.91292       -3.92665        4.86911
H          3.09990       -5.48790        4.90936
H          4.39056       -5.21112        3.74989
C          6.83615       -1.01199        2.95700
C          6.45656       -1.48158        1.54108
C          6.81902       -0.36505        0.54117
C          7.26350       -2.74101        1.17530
H          6.25710       -0.13239        3.23770
H          6.64299       -1.78870        3.69604
H          7.89336       -0.75308        3.01246
H          6.29486        0.56065        0.77834
H          7.88783       -0.15337        0.56762
H          6.56500       -0.65533       -0.47818
H          8.33289       -2.53069        1.16936
H          7.08737       -3.54652        1.88711
H          6.98501       -3.10186        0.18532
C          2.40346        4.50062        1.59434
C          2.51525        4.71761        0.07134
C          1.17836        5.24009       -0.47742
C          3.60526        5.77775       -0.18060
H          1.58613        3.82732        1.84673
H          3.32392        4.07237        1.99037
H          2.22092        5.44343        2.10966
H          0.88742        6.16875        0.01316
H          1.25176        5.43140       -1.54765
H          0.38523        4.50996       -0.32349
H          3.39093        6.69150        0.37363
H          4.58230        5.41542        0.13885
H          3.66283        6.04396       -1.23562
C          5.37771        0.62791       -3.90702
C          5.24359        2.03165       -3.28505
C          6.57459        2.38863       -2.59788
C          4.95833        3.04159       -4.41263
H          4.45391        0.32544       -4.39877
H          6.17079        0.61040       -4.65443
H          5.62470       -0.11547       -3.14931
H          6.54481        3.39317       -2.17726
H          6.78765        1.69338       -1.78639
H          7.40287        2.34641       -3.30495
H          4.00110        2.83241       -4.88805
H          4.92600        4.06230       -4.03390
H          5.73170        2.99746       -5.17931
H         -2.36100       -1.72630       -4.67463
H          1.80195       -0.24375       -4.34967
H         -0.95049       -1.16447       -5.56999
H         -1.72639       -0.11267       -4.38195
H          2.25078        1.33631       -4.98190
H          0.84132        0.50174       -5.63003
