115
-277.93569141
P         -1.68235       -0.05031       -0.09745
P          1.86308       -0.75756        0.45612
C         -1.49178        1.71909       -0.42428
C         -2.60809        2.51612       -0.29739
H         -3.57841        2.06490       -0.15698
C         -2.46572        3.88671       -0.24207
H         -3.31125        4.51334       -0.00857
C         -1.21054        4.46431       -0.34617
C         -0.11809        3.66183       -0.63292
H          0.85110        4.13032       -0.74032
C         -0.25942        2.28932       -0.66828
H          0.60694        1.66890       -0.82178
C         -3.15188       -0.67598       -0.92706
C         -3.71968       -1.83641       -0.45572
H         -3.28422       -2.33904        0.39274
C         -4.84898       -2.34414       -1.06286
H         -5.31596       -3.24464       -0.69721
C         -5.41082       -1.69591       -2.14626
C         -4.83174       -0.53265       -2.61444
H         -5.28552       -0.03302       -3.45592
C         -3.70116       -0.02416       -2.00703
H         -3.23781        0.87337       -2.38394
C         -1.68259       -0.58763        1.64970
C         -1.06217       -1.81338        1.82087
H         -0.61573       -2.30155        0.97059
C         -0.84988       -2.35239        3.09034
C         -1.49536       -1.74574        4.16138
H         -1.38153       -2.16076        5.14890
C         -2.13502       -0.53343        3.99757
H         -2.52013       -0.01932        4.86176
C         -2.13761        0.12278        2.76708
C          1.40288       -0.25913        2.15519
C          0.74011        0.95147        2.15545
H          0.52043        1.42569        1.21739
C          0.18923        1.48819        3.31646
C          0.51670        0.88306        4.52337
H          0.13694        1.29699        5.44247
C          1.18147       -0.32677        4.53753
H          1.31522       -0.84302        5.47312
C          1.53000       -0.97683        3.35317
C         -2.30667        1.62465        2.78132
H         -3.14047        1.88435        3.44293
H         -2.63165        1.94735        1.79512
C         -1.00520        2.39897        3.21294
H         -0.77742        3.21084        2.51371
H         -1.15552        2.89951        4.17577
C          0.32507       -3.26373        3.33951
H          0.36711       -4.03198        2.56041
H          0.15441       -3.82391        4.26568
C          1.68633       -2.47945        3.41888
H          2.22548       -2.74475        4.33618
H          2.35778       -2.81144        2.63105
C          2.80541       -2.28152        0.54141
C          4.05512       -2.25555        1.12502
C          2.17110       -3.47901        0.28844
C          4.61810       -3.43561        1.57562
C          2.74068       -4.65556        0.72696
C          3.93004       -4.63181        1.43942
C          2.87327        0.52128       -0.30987
C          3.09275        0.49618       -1.66788
C          3.28333        1.60037        0.44002
C          3.66359        1.58378       -2.29344
H          2.76865       -0.35346       -2.24534
C          3.85623        2.68788       -0.18398
H          3.10896        1.61643        1.50356
C          4.02104        2.69745       -1.55761
H          3.77655        1.61453       -3.36587
H          4.11232        3.57291        0.37680
Pd         0.18188       -0.98137       -1.17045
Cl        -1.17171       -1.11029       -2.96594
Cl         1.67821       -2.21397       -2.32379
H          2.20591       -5.58746        0.63870
H          1.19709       -3.48972       -0.17373
H          5.53249       -3.42950        2.14813
H          4.53252       -1.30915        1.32634
C         -2.16341        6.80237       -0.08894
C         -0.96625        5.84992        0.19909
C         -0.70264        5.66071        1.72583
F         -2.42328        6.74527       -1.40372
F         -3.23964        6.40088        0.60142
F         -1.82258        8.05249        0.26152
F          0.12681        6.38520       -0.34986
F         -1.74072        5.01260        2.27112
F          0.39294        4.89888        1.85413
F         -0.52009        6.85313        2.30902
C         -6.60886       -3.73674       -3.00464
C         -6.68863       -2.19927       -2.76838
C         -7.87618       -1.80323       -1.84467
F         -7.67513       -4.12913       -3.71870
F         -5.48020       -3.98402       -3.68619
F         -6.57431       -4.37182       -1.82488
F         -6.88228       -1.61657       -3.95473
F         -7.90312       -0.46358       -1.77868
F         -9.02254       -2.26595       -2.36531
F         -7.67177       -2.31172       -0.62065
C          3.03099        4.82276       -2.28807
C          4.34060        3.97960       -2.27946
C          5.53417        4.71828       -1.60754
F          2.08757        4.08915       -2.89659
F          2.65267        5.05472       -1.02388
F          3.23598        5.97121       -2.94929
F          4.67646        3.72654       -3.54718
F          6.56244        3.85840       -1.55240
F          5.86411        5.78640       -2.35025
F          5.19302        5.09602       -0.36761
C          3.32315       -5.58982        3.61271
C          4.25875       -5.76961        2.37363
C          4.07737       -7.14868        1.67623
F          2.04711       -5.57590        3.20370
F          3.53491       -6.58091        4.48876
F          3.61193       -4.40395        4.16565
F          5.52368       -5.67852        2.79095
F          4.80876       -7.13475        0.55182
F          4.51256       -8.11605        2.49830
F          2.78516       -7.33686        1.37473
