58
-89.87192695
P          1.71094        0.11655        0.87289
C          2.33974        1.72628        0.37897
C          3.55776        1.85651       -0.24753
C          3.99213        3.10555       -0.65204
C          3.19884        4.21459       -0.43245
C          1.97087        4.07777        0.18451
C          1.53863        2.82704        0.58835
H          0.57060        2.70065        1.04766
H          4.15570        0.97988       -0.43445
C          2.89964       -1.21183        0.65252
C          2.54837       -2.35100       -0.03587
C          3.46590       -3.37509       -0.18495
C          4.72748       -3.25410        0.36319
C          5.07244       -2.11445        1.06249
C          4.15269       -1.09143        1.20992
H          4.40529       -0.19903        1.76087
H          1.56072       -2.43543       -0.45959
C          1.20275        0.14892        2.63747
C          0.10867       -0.86498        2.94051
C         -1.28883       -0.35050        2.63386
P         -1.68121       -0.15086        0.84006
C         -2.56528       -1.61524        0.28793
C         -1.90686       -2.82407        0.28259
C         -2.55940       -3.96013       -0.16202
C         -3.86576       -3.87544       -0.60167
C         -4.51971       -2.65914       -0.60069
C         -3.86462       -1.52549       -0.15551
H         -4.35743       -0.56733       -0.16474
H         -0.88214       -2.87308        0.61502
C         -2.68090        1.33491        0.65645
C         -3.80607        1.46975        1.43877
C         -4.58964        2.60498        1.32999
C         -4.23859        3.60035        0.43987
C         -3.10826        3.46305       -0.34093
C         -2.32827        2.32658       -0.23132
H         -1.45083        2.20913       -0.84516
H         -4.06733        0.68568        2.13230
Pd         0.04289       -0.05599       -0.71097
Cl         1.65329       -0.17320       -2.27259
Cl        -1.60294       -0.21202       -2.23924
H         -2.05554       -1.01706        3.03693
H         -1.44430        0.62279        3.10396
H          0.30096       -1.78995        2.38041
H          0.16023       -1.15254        4.00242
H          2.11032       -0.04898        3.21340
H          0.88075        1.15981        2.89319
H          4.94509        3.21106       -1.14399
H          1.34667        4.94133        0.34544
H          3.19594       -4.26459       -0.73011
H          6.05562       -2.02138        1.49374
H         -2.04634       -4.90775       -0.16976
H         -5.53644       -2.59127       -0.95129
H         -5.47169        2.71141        1.93986
H         -2.83514        4.23813       -1.03808
H          3.53560        5.18795       -0.75006
H          5.44360       -4.05111        0.24621
H         -4.37413       -4.75925       -0.95118
H         -4.84819        4.48505        0.35359
