111
-148.54717844
P         -2.07049        2.65189        0.12534
P         -0.36394       -0.02598        0.46532
C         -1.74370        1.98419        1.77755
C         -1.01083        0.82591        1.92201
C         -1.51637        4.41669        0.05753
C         -0.58061        4.65271       -1.10837
C         -2.15594        2.68349        2.89395
H         -2.69875        3.60670        2.77304
C         -1.84201        2.21466        4.15774
H         -2.16650        2.75917        5.02944
C         -1.09480        1.06205        4.30118
H         -0.83236        0.70644        5.28399
C         -0.66664        0.37442        3.17990
H         -0.03529       -0.49488        3.27814
Pd        -1.07047        1.20531       -1.37481
Cl        -2.07033        2.47063       -2.94148
Cl         0.08617       -0.14485       -2.74122
C         -2.84531        5.19393       -0.03964
C         -3.86337        2.85133       -0.29460
H         -1.09374        4.47264       -2.05422
H         -0.21053        5.68057       -1.12569
H          0.28037        3.98149       -1.07171
H         -2.68622        6.12250       -0.60717
H         -3.16803        5.51163        0.96270
H         -4.04651        2.19881       -1.15954
C         -3.96637        4.33812       -0.69404
C         -4.76318        2.45612        0.85676
H         -1.00350        4.61975        1.00777
H         -4.95902        4.72435       -0.42050
H         -3.90256        4.43425       -1.78794
H         -5.81815        2.52049        0.58008
H         -4.56129        1.43397        1.18549
H         -4.61050        3.11518        1.71231
C         -1.08955       -4.53797        0.40749
C         -0.65364       -3.86827       -0.76290
C         -0.45931       -2.50032       -0.69675
C         -0.73073       -1.78804        0.44265
C         -1.27112       -2.41893        1.53440
C         -1.49796       -3.78515        1.53767
O         -1.08541       -5.95734        0.46058
C         -0.35884       -4.60170       -2.08099
H         -0.09677       -1.96019       -1.55212
H         -1.52025       -1.82776        2.39574
C         -2.14438       -4.43565        2.77119
C          4.03968        1.05140        0.05142
C          3.61347       -0.25486       -0.30818
C          2.27247       -0.56764       -0.16894
C          1.38565        0.33397        0.35646
C          1.81040        1.55799        0.80581
C          3.14307        1.92685        0.72172
O          5.32495        1.51114       -0.33423
C          4.54625       -1.34568       -0.85981
H          1.90249       -1.52330       -0.49451
H          1.08270        2.23207        1.22608
C          3.56740        3.24302        1.39576
C         -1.26275       -5.83715       -2.24334
C         -0.63443       -3.68062       -3.29171
C          1.11977       -5.01795       -2.11090
C         -3.09592       -3.44343        3.47798
C         -2.98875       -5.65992        2.37282
C         -1.04617       -4.85042        3.76198
C          0.14031       -6.51568        0.91703
H         -1.06868       -6.57572       -1.46969
H         -2.31303       -5.55475       -2.17929
H         -1.09897       -6.31888       -3.20696
H         -1.63728       -3.25810       -3.23736
H          0.07977       -2.86053       -3.34666
H         -0.55495       -4.23542       -4.22620
H          1.76677       -4.14371       -2.04617
H          1.36289       -5.67200       -1.27687
H          1.35840       -5.54540       -3.03406
H         -3.81654       -3.02878        2.77357
H         -3.65259       -3.94068        4.27202
H         -2.55173       -2.61989        3.93799
H         -2.37148       -6.44396        1.94123
H         -3.49984       -6.08196        3.23778
H         -3.74150       -5.38328        1.63540
H         -1.47654       -5.30428        4.65433
H         -0.36368       -5.56955        3.31557
H         -0.46022       -3.98543        4.07199
H          0.84921       -5.72525        1.16699
H         -0.04447       -7.13054        1.79777
H          0.56479       -7.15211        0.14082
C          5.31738        2.15382       -1.59803
C          6.03269       -1.00994       -0.64974
C          4.27527       -2.67590       -0.12236
C          4.26897       -1.53515       -2.36078
C          3.03222        4.43482        0.58571
C          2.97468        3.29669        2.82161
C          5.09467        3.36217        1.53741
H          6.67015       -1.83719       -0.96097
H          6.32444       -0.13534       -1.22627
H          6.23470       -0.80045        0.40009
H          3.26730       -3.04409       -0.30460
H          4.96752       -3.45040       -0.45167
H          4.39783       -2.55049        0.95303
H          4.46625       -0.61905       -2.91439
H          4.89678       -2.32225       -2.77749
H          3.22839       -1.80798       -2.53379
H          1.94430        4.41676        0.54226
H          3.33139        5.37943        1.03921
H          3.40785        4.41814       -0.43567
H          3.28310        2.42540        3.39869
H          3.31309        4.18750        3.35012
H          1.88618        3.32139        2.80709
H          5.36858        4.25084        2.10556
H          5.57657        3.43181        0.56510
H          5.50200        2.49154        2.05022
H          4.96795        1.46402       -2.36483
H          4.65383        3.01681       -1.57463
H          6.32819        2.48211       -1.84096
