111
-148.55346069
P         -2.31983        2.38867        0.62910
P         -0.10586        0.12975        0.58544
C         -1.50829        1.89944        2.17139
C         -0.53228        0.92835        2.14422
C         -2.39792        4.23299        0.48853
C         -1.40803        4.75454       -0.53069
C         -1.84809        2.50383        3.36462
H         -2.61649        3.25969        3.37852
C         -1.20172        2.13364        4.53140
H         -1.46646        2.60353        5.46453
C         -0.21465        1.16710        4.50020
H          0.29242        0.88274        5.40750
C          0.12339        0.56431        3.30171
H          0.89696       -0.18660        3.25860
Pd        -1.26506        1.24864       -1.07960
Cl        -2.63003        2.36694       -2.46994
Cl        -0.12778        0.14981       -2.67304
C         -3.87640        4.48973        0.14288
C         -4.12336        1.98037        0.58333
H         -1.45521        5.84289       -0.61269
H         -0.38435        4.47808       -0.26790
H         -1.61434        4.34113       -1.51895
H         -3.97788        4.54371       -0.94980
H         -4.19343        5.47448        0.51850
H         -4.30738        1.54369       -0.40746
C         -4.79616        3.36141        0.69150
C         -4.49559        1.00307        1.67808
H         -2.16574        4.62606        1.48687
H         -5.03037        3.55974        1.74641
H         -5.76543        3.35674        0.17013
H         -5.55987        0.75798        1.64978
H         -3.92985        0.07242        1.58767
H         -4.27926        1.42182        2.66241
C         -0.96017       -4.34900        0.55493
C         -1.18213       -3.60686        1.74348
C         -0.90649       -2.24963        1.73165
C         -0.50777       -1.61819        0.58220
C         -0.41714       -2.31145       -0.59615
C         -0.66286       -3.67152       -0.65439
O         -1.00046       -5.76843        0.58390
C         -1.68536       -4.25634        3.04220
H         -0.99525       -1.66571        2.62993
H         -0.15151       -1.76210       -1.48170
C         -0.56825       -4.38947       -2.00969
C          4.13242        1.05943       -0.77189
C          3.30894        2.08936       -0.24778
C          2.02758        1.75903        0.16242
C          1.59329        0.45954        0.13938
C          2.42374       -0.55413       -0.25932
C          3.71404       -0.29359       -0.68729
O          5.35091        1.38622       -1.42397
C          3.75988        3.55566       -0.16513
H          1.33768        2.51914        0.48802
H          2.03968       -1.55854       -0.25710
C          4.60721       -1.47063       -1.10834
C         -0.48328       -4.71910        3.87904
C         -2.50648       -3.24468        3.87433
C         -2.61338       -5.44779        2.74289
C         -1.53194       -5.58817       -2.07154
C         -0.96105       -3.43556       -3.16124
C          0.87740       -4.85808       -2.23539
C          0.25197       -6.37652        0.87388
H          0.11309       -5.45176        3.34056
H          0.16491       -3.87705        4.12078
H         -0.81021       -5.17307        4.81419
H         -1.88206       -2.44407        4.26812
H         -3.29718       -2.79849        3.27162
H         -2.97312       -3.73496        4.72842
H         -3.02181       -5.86719        3.66200
H         -3.44578       -5.13677        2.11252
H         -2.08305       -6.24367        2.22592
H         -1.51058       -6.05797       -3.05454
H         -1.26911       -6.34707       -1.33891
H         -2.55399       -5.26920       -1.86997
H         -1.02239       -3.97438       -4.10639
H         -1.93210       -2.97874       -2.97258
H         -0.22915       -2.64045       -3.29482
H          1.19864       -5.53926       -1.45099
H          0.97659       -5.37277       -3.19069
H          1.56061       -4.00933       -2.23775
H          1.01681       -5.61556        1.03443
H          0.16009       -6.99397        1.76728
H          0.54752       -7.01926        0.04483
C          5.20903        1.62840       -2.81830
C          3.08882        4.26304        1.03456
C          5.28087        3.66092        0.04776
C          3.35270        4.28355       -1.45538
C          6.09399       -1.16026       -0.85829
C          4.26721       -2.73450       -0.28519
C          4.37080       -1.77560       -2.59553
H          3.50034        5.26246        1.17389
H          2.01594        4.37750        0.88864
H          3.25146        3.70259        1.95481
H          5.58255        3.10991        0.93789
H          5.82964        3.25385       -0.79764
H          5.58847        4.69907        0.17067
H          3.64544        5.33261       -1.42133
H          3.82058        3.83188       -2.32693
H          2.27334        4.23833       -1.59908
H          6.26118       -0.90079        0.18654
H          6.71950       -2.01949       -1.09902
H          6.43354       -0.32607       -1.46695
H          3.27704       -3.11939       -0.52369
H          4.97831       -3.53386       -0.49250
H          4.30408       -2.52238        0.78298
H          3.32358       -2.01611       -2.77743
H          4.97419       -2.62220       -2.92199
H          4.62525       -0.92108       -3.21801
H          4.16761        1.50866       -3.12008
H          5.54047        2.64040       -3.05022
H          5.83165        0.92951       -3.37662
