72
-98.09657630
Fe         0.01328        2.80136       -0.09204
P          1.84701       -0.04861       -0.05394
P         -1.85841       -0.06435        0.00612
C          1.42158        1.60001        0.63570
C          0.42544        1.86211        1.65956
C          0.37475        3.29530        1.88600
C          1.35917        3.92095        1.02260
C          2.01556        2.87381        0.25846
C         -1.40250        1.53299       -0.77526
C         -2.00602        2.82852       -0.50717
C         -1.31663        3.81994       -1.31496
C         -0.31395        3.13829       -2.11212
C         -0.36548        1.72738       -1.77419
C          3.20178       -0.76154        1.00031
C          4.39923        0.08610        0.53722
C          2.90094        0.19856       -1.56823
C          4.31416        0.43187       -0.97962
C         -3.18551       -0.88817       -1.01380
C         -4.46800       -0.72125       -0.17067
C         -2.86399        0.27593        1.53539
C         -4.29133        0.32746        0.95710
H         -0.18776        1.11158        2.15407
H         -0.27626        3.80919        2.59676
H          1.57947        4.98931        0.96837
H          2.80777        3.01599       -0.47931
H         -2.81938        3.02329        0.19423
H          0.28427        0.94963       -2.17349
Cl         1.56415       -3.08116       -0.27046
Cl        -1.60132       -3.03254        0.45606
Pd         0.00443       -1.49389        0.08307
H          3.34288       -1.80409        0.69227
C          2.92071       -0.69063        2.50339
H          2.53223        1.09304       -2.08395
C          2.86760       -1.00407       -2.50981
H          5.34654       -0.42215        0.77584
H          4.40924        1.01346        1.12882
H          4.63905        1.46822       -1.15441
H          5.03244       -0.18700       -1.53545
H         -1.53737        4.88931       -1.34163
H          0.36466        3.60315       -2.83073
H          3.87466       -0.61004        3.04302
H          3.66690       -0.89329       -3.25597
H         -2.91181       -1.94685       -1.09553
C         -3.31059       -0.29781       -2.41654
H         -2.55525        1.25008        1.93339
C         -2.72977       -0.80529        2.60871
H         -4.75389       -1.68696        0.27084
H         -5.30615       -0.44201       -0.82462
H         -4.50004        1.33196        0.56025
H         -5.02776        0.16532        1.75851
H         -4.26913       -0.60882       -2.85485
H         -2.87061       -1.78419        2.13321
C          2.14465       -1.89160        3.02357
H          1.21754       -2.03848        2.47143
H          2.72184       -2.81132        2.91073
H          1.88930       -1.79123        4.08085
C          1.54016       -1.21204       -3.21823
H          1.26575       -0.33888       -3.81291
H          1.56830       -2.07040       -3.89337
H          0.73707       -1.39380       -2.50508
C         -2.17575       -0.70800       -3.33908
H         -1.21312       -0.40724       -2.93092
H         -2.14215       -1.79154       -3.46823
H         -2.26742       -0.25927       -4.33077
C         -1.41873       -0.77543        3.37362
H         -0.57027       -0.89360        2.70225
H         -1.28941        0.16947        3.90479
H         -1.35896       -1.57644        4.11409
H          2.38836        0.24362        2.72281
H          3.13334       -1.90123       -1.93561
H         -3.37170        0.79526       -2.33631
H         -3.56532       -0.70990        3.31600
