59
-75.79754472
Cl         1.58426        0.43136        2.31243
P          1.52840       -0.03078       -0.88862
P         -1.66741       -0.12926       -0.80834
C          0.50588        0.09771       -2.42137
H          0.22082        1.14381       -2.56155
H          1.11458       -0.19694       -3.28213
C         -0.71110       -0.76645       -2.25252
H         -0.42976       -1.80462       -2.05843
H         -1.35801       -0.75635       -3.13541
C          2.75506       -1.40677       -1.09227
H          2.79424       -1.56185       -2.17918
C          2.69602        1.38662       -0.63505
H          2.59961        1.67656        0.41825
C         -3.12596       -1.18485       -0.38717
H         -3.27136       -1.08570        0.69541
C         -2.55492        1.40131       -1.36763
H         -2.31069        1.48115       -2.43542
C          4.07560       -0.76879       -0.62801
H          4.20997       -0.94772        0.44592
H          4.93133       -1.25727       -1.11857
C          4.08031        0.76251       -0.89009
H          4.36811        0.95290       -1.93303
H          4.84535        1.26228       -0.27679
C         -4.27302       -0.48729       -1.13867
H         -4.33081       -0.89884       -2.15601
H         -5.23960       -0.72421       -0.66788
C         -4.04729        1.04887       -1.20760
H         -4.43661        1.50995       -0.29229
H         -4.63416        1.49295       -2.02566
C          2.36330       -2.71830       -0.40739
H          3.03572       -3.51488       -0.75553
H          1.36652       -3.01078       -0.76375
C          2.36296        2.57211       -1.53192
H          2.43486        2.25458       -2.58055
H          1.31107        2.85112       -1.38364
C         -2.91774       -2.64980       -0.74884
H         -3.87252       -3.18454       -0.64780
H         -2.65963       -2.72079       -1.81334
C         -2.08523        2.65751       -0.63364
H         -1.00165        2.76060       -0.78243
H         -2.52808        3.54080       -1.11476
C          2.37346       -2.68864        1.11409
H          3.38061       -2.55421        1.51113
H          1.98519       -3.61628        1.54132
H          1.76464       -1.87524        1.50506
C          3.25896        3.77611       -1.28190
H          3.18383        4.11377       -0.24651
H          2.99868        4.62126       -1.92328
H          4.30763        3.53618       -1.46623
C         -1.85216       -3.32029        0.10566
H         -1.69519       -4.36412       -0.17517
H         -2.12514       -3.30043        1.16244
H         -0.89309       -2.80863        0.01852
C         -2.39431        2.68442        0.85679
H         -2.03285        1.78588        1.35472
H         -1.92951        3.53938        1.35341
H         -3.46553        2.74854        1.05179
Cl        -1.63401       -0.29760        2.37399
Pd        -0.02551       -0.05299        0.82775
