58
-89.86862624
P          1.69261        0.31846        0.77515
C          3.14113        1.28883        0.35061
C          4.27435        0.66681       -0.12134
C          5.38362        1.42140       -0.45791
C          5.34779        2.79509       -0.32067
C          4.20735        3.41501        0.15085
C          3.09954        2.65733        0.48740
H          2.19735        3.12835        0.84491
H          4.28480       -0.40566       -0.22938
C          1.93788       -1.41617        0.36342
C          2.14880       -2.37049        1.33241
C          2.29814       -3.69643        0.96830
C          2.24478       -4.05702       -0.36368
C          2.05253       -3.09445       -1.33440
C          1.90209       -1.77018       -0.96673
H          1.75763       -1.00202       -1.71038
H          2.21164       -2.07927        2.36781
C          1.33282        0.58915        2.55638
C          0.14550       -0.19311        3.09354
C         -1.20756        0.34455        2.65718
P         -1.64867       -0.01149        0.90966
C         -1.59851       -1.76687        0.51619
C         -1.54706       -2.73179        1.49626
C         -1.47565       -4.06671        1.14137
C         -1.46567       -4.42748       -0.19164
C         -1.53710       -3.45803       -1.17183
C         -1.60683       -2.12486       -0.81311
H         -1.67128       -1.35171       -1.56262
H         -1.57752       -2.44469        2.53425
C         -3.27938        0.67068        0.60242
C         -4.32635       -0.16242        0.28083
C         -5.57830        0.37110        0.03338
C         -5.77058        1.73663        0.10841
C         -4.71599        2.56866        0.42920
C         -3.46491        2.03198        0.67693
H         -2.62867        2.66968        0.91726
H         -4.15850       -1.22550        0.21908
Pd        -0.09735        0.77388       -0.62609
Cl         1.38837        1.67249       -2.04896
Cl        -1.85287        1.12591       -1.98552
H         -2.01633       -0.08215        3.25570
H         -1.25481        1.42649        2.79293
H          0.23471       -1.24393        2.79452
H          0.19010       -0.20209        4.19387
H          2.25309        0.32557        3.08370
H          1.18515        1.66078        2.70128
H          6.27184        0.93776       -0.82997
H          4.17715        4.48744        0.25191
H          2.45563       -4.44766        1.72472
H          2.01535       -3.37292       -2.37467
H         -1.42733       -4.82477        1.90578
H         -1.53470       -3.73724       -2.21256
H         -6.40004       -0.27788       -0.22122
H         -4.86467        3.63466        0.48174
H          6.21014        3.38486       -0.58569
H          2.35695       -5.09105       -0.64626
H         -1.40577       -5.46771       -0.46728
H         -6.74474        2.15420       -0.08743
