111
-148.55574408
P         -2.18165        2.10257        1.48861
P          0.16414        0.17275        0.59598
C         -1.06026        1.42237        2.73285
C         -0.05368        0.56590        2.34347
C         -2.29191        3.94483        1.59117
C         -1.42774        4.60526        0.53811
C         -1.21015        1.75555        4.06354
H         -1.98963        2.44029        4.35610
C         -0.35654        1.21332        5.00854
H         -0.47329        1.47007        6.04876
C          0.64405        0.34376        4.61914
H          1.30848       -0.07946        5.35443
C          0.79731        0.02132        3.28247
H          1.57868       -0.65007        2.96518
Pd        -1.43450        1.39333       -0.57035
Cl        -3.27763        2.24145       -1.51988
Cl        -0.50599        0.64249       -2.47072
C         -3.80129        4.20121        1.43191
C         -3.96166        1.65769        1.75479
H         -1.74335        4.30816       -0.46384
H         -1.49253        5.69440        0.59397
H         -0.37845        4.32112        0.64989
H         -4.02466        4.33356        0.36411
H         -4.08216        5.15066        1.91289
H         -4.29825        1.21919        0.80602
C         -4.64244        3.02069        1.99341
C         -4.13858        0.67816        2.89768
H         -1.95882        4.22062        2.60021
H         -4.78614        3.15943        3.07358
H         -5.65454        3.02217        1.56157
H         -3.52193       -0.21238        2.76420
H         -3.84598        1.13100        3.84599
H         -5.17952        0.36109        2.99486
C         -1.31891       -4.01156       -0.41923
C         -2.19311       -3.07048        0.18431
C         -1.68376       -1.82632        0.52123
C         -0.39964       -1.47745        0.18977
C          0.39594       -2.33008       -0.53075
C         -0.04368       -3.59510       -0.87939
O         -1.69147       -5.37833       -0.51520
C         -3.67199       -3.37161        0.47278
H         -2.29033       -1.10291        1.03768
H          1.37173       -1.99098       -0.82792
C          0.86604       -4.50077       -1.72332
C          4.37829        0.96266       -0.95159
C          4.14978       -0.12397       -0.06923
C          2.85825       -0.34350        0.38033
C          1.83577        0.50525        0.04167
C          2.07709        1.62249       -0.71419
C          3.34367        1.89989       -1.20005
O          5.62746        1.09090       -1.61521
C          5.26863       -1.07955        0.37546
H          2.63090       -1.19965        0.99123
H          1.24960        2.27091       -0.94390
C          3.56008        3.17732       -2.02581
C         -4.53159       -2.11638        0.20245
C         -4.21567       -4.48306       -0.44368
C         -3.82557       -3.78285        1.94457
C          0.03555       -5.45053       -2.60564
C          1.74430       -3.65476       -2.67318
C          1.78041       -5.31152       -0.79295
C         -1.34695       -6.14117        0.63408
H         -4.35573       -1.73734       -0.80397
H         -5.59300       -2.34492        0.29506
H         -4.31351       -1.31772        0.90695
H         -4.05846       -4.22722       -1.49095
H         -3.72014       -5.43182       -0.25496
H         -5.28362       -4.63303       -0.28719
H         -3.48239       -2.98779        2.60605
H         -4.86698       -3.99565        2.18450
H         -3.23914       -4.67292        2.16469
H          0.67792       -6.04548       -3.25435
H         -0.55106       -6.13916       -2.00216
H         -0.65295       -4.88641       -3.23389
H          1.13054       -2.97687       -3.26581
H          2.47681       -3.06276       -2.12734
H          2.29785       -4.29370       -3.36082
H          1.19934       -5.95259       -0.13356
H          2.45789       -5.94432       -1.36571
H          2.38154       -4.64976       -0.16975
H         -2.25120       -6.45529        1.15472
H         -0.79764       -7.03132        0.32705
H         -0.72984       -5.54916        1.31113
C          5.69319        0.40720       -2.86056
C          5.35487       -2.25693       -0.60767
C          6.62296       -0.35138        0.45229
C          4.97900       -1.63844        1.78724
C          2.59348        4.29391       -1.56811
C          4.98943        3.71973       -1.84631
C          3.28859        2.87311       -3.50700
H          4.41753       -2.81179       -0.62651
H          5.55635       -1.91307       -1.61935
H          6.14828       -2.94703       -0.32183
H          7.40208       -1.01160        0.83254
H          6.94027        0.00160       -0.52565
H          6.55722        0.51189        1.11367
H          5.82841       -2.21192        2.15775
H          4.78786       -0.82992        2.49239
H          4.11874       -2.30617        1.78859
H          2.83258        5.23728       -2.05844
H          1.55936        4.05946       -1.81632
H          2.66223        4.44940       -0.49175
H          5.73021        3.01915       -2.22342
H          5.12217        4.65943       -2.38186
H          5.20300        3.89647       -0.79269
H          2.26944        2.51239       -3.64462
H          3.96314        2.10740       -3.88230
H          3.41730        3.76522       -4.11927
H          6.49224       -0.33332       -2.83009
H          4.74512       -0.08879       -3.07269
H          5.91787        1.11749       -3.65607
