111
-148.55446550
P         -2.59884        2.14152        0.56485
P          0.10521        0.49856        0.41763
C         -1.50384        2.07816        2.00864
C         -0.30963        1.39495        1.92563
C         -3.41892        3.79015        0.38164
C         -2.83545        4.56512       -0.77975
C         -1.86366        2.69331        3.19055
H         -2.80734        3.20958        3.25680
C         -1.01859        2.62866        4.28516
H         -1.29867        3.10838        5.20876
C          0.18067        1.94773        4.19698
H          0.83658        1.89490        5.05030
C          0.53475        1.32481        3.01358
H          1.45927        0.77475        2.93127
Pd        -1.34615        1.32839       -1.18588
Cl        -3.02545        1.75584       -2.60572
Cl         0.06614        0.50570       -2.73266
C         -4.90585        3.41969        0.22291
C         -4.08261        1.04839        0.72072
H         -2.96701        4.01847       -1.71484
H         -3.32051        5.53722       -0.89536
H         -1.76399        4.73334       -0.64680
H         -5.14148        3.36179       -0.84871
H         -5.54605        4.22052        0.62312
H         -4.17722        0.52573       -0.24066
C         -5.23343        2.05626        0.89647
C         -3.92583        0.06051        1.85611
H         -3.25615        4.32671        1.32497
H         -5.40785        2.21019        1.97033
H         -6.17205        1.63813        0.50189
H         -4.81460       -0.56479        1.96803
H         -3.06940       -0.59635        1.69072
H         -3.76305        0.57977        2.80237
C         -1.09753       -3.88279        0.71324
C         -1.05584       -3.09256        1.89105
C         -0.67629       -1.76549        1.77852
C         -0.41865       -1.20824        0.55395
C         -0.55998       -1.94019       -0.59439
C         -0.93855       -3.26997       -0.55583
O         -1.25792       -5.29071        0.80897
C         -1.37824       -3.66541        3.28001
H         -0.56492       -1.14816        2.65221
H         -0.35722       -1.44884       -1.53002
C         -1.14211       -4.02113       -1.88035
C          4.51245        0.71583       -0.70647
C          3.69640        1.87173       -0.83551
C          2.36996        1.78704       -0.44280
C          1.83528        0.59898       -0.01904
C          2.58657       -0.54737       -0.01269
C          3.91817       -0.53469       -0.39111
O          5.92258        0.82293       -0.81831
C          4.19081        3.20484       -1.42226
H          1.73267        2.65492       -0.47175
H          2.11552       -1.46773        0.28805
C          4.65324       -1.88308       -0.47683
C         -2.45622       -4.76071        3.18892
C         -0.09559       -4.23510        3.90437
C         -1.93289       -2.56506        4.21330
C         -2.19374       -5.13544       -1.73305
C         -1.65814       -3.05803       -2.97485
C          0.19928       -4.61258       -2.33956
C         -0.03205       -6.00747        0.88731
H         -2.73212       -5.12249        4.17910
H         -3.35386       -4.37613        2.70579
H         -2.10673       -5.61397        2.61277
H         -0.29003       -4.63578        4.89892
H          0.31741       -5.03539        3.29513
H          0.66561       -3.46046        3.99495
H         -1.17759       -1.81752        4.45106
H         -2.78401       -2.06127        3.75665
H         -2.26713       -2.99278        5.15826
H         -1.86784       -5.89952       -1.03202
H         -3.13561       -4.72752       -1.36771
H         -2.38340       -5.62414       -2.68839
H         -2.54112       -2.51918       -2.63225
H         -0.90261       -2.32792       -3.26075
H         -1.92919       -3.60632       -3.87663
H          0.93510       -3.82345       -2.49199
H          0.60121       -5.30103       -1.59984
H          0.08650       -5.15391       -3.27848
H          0.81261       -5.31736        0.90063
H         -0.02148       -6.61286        1.79359
H          0.05853       -6.67537        0.03095
C          6.55136        1.11071        0.41917
C          3.16087        3.72447       -2.45024
C          4.34254        4.23676       -0.29298
C          5.52985        3.05574       -2.16537
C          3.75768       -2.91031       -1.20632
C          5.96448       -1.78152       -1.27493
C          4.95150       -2.39513        0.94166
H          3.52634        4.62291       -2.94687
H          2.96823        2.97198       -3.21444
H          2.21164        3.97732       -1.98112
H          4.66576        5.20008       -0.68668
H          3.39696        4.38671        0.22718
H          5.07733        3.91093        0.44087
H          5.81339        3.98678       -2.65559
H          6.33177        2.78648       -1.48195
H          5.46284        2.27751       -2.92483
H          3.45279       -2.52995       -2.18084
H          4.28963       -3.84840       -1.36267
H          2.85808       -3.14037       -0.63776
H          5.78138       -1.35733       -2.26156
H          6.68612       -1.14561       -0.76743
H          6.42258       -2.76170       -1.40503
H          5.44801       -3.36461        0.90911
H          4.03227       -2.50793        1.51585
H          5.59784       -1.70536        1.48103
H          6.34748        0.31636        1.13534
H          7.62775        1.18999        0.26556
H          6.17444        2.05032        0.82000
