111
-148.55491578
P         -2.53720        2.09438        0.90943
P          0.10994        0.39445        0.53014
C         -1.47043        1.75576        2.33679
C         -0.29824        1.05338        2.15718
C         -3.29916        3.77859        1.00090
C         -2.64982        4.73271        0.02242
C         -1.82766        2.18547        3.59886
H         -2.75512        2.71610        3.73875
C         -1.00135        1.91806        4.67689
H         -1.27939        2.25341        5.66273
C          0.17685        1.22015        4.49205
H          0.81864        1.01029        5.33183
C          0.52761        0.78204        3.22762
H          1.43533        0.22139        3.06699
Pd        -1.28766        1.50547       -0.93729
Cl        -2.92746        2.32800       -2.22748
Cl         0.05478        0.87307       -2.62624
C         -4.78909        3.49521        0.73259
C         -4.05976        1.04466        0.85891
H         -3.10099        5.72635        0.07436
H         -1.57966        4.83450        0.21809
H         -2.76214        4.37394       -1.00161
H         -4.98348        3.62176       -0.34139
H         -5.41951        4.24304        1.23733
H         -4.14298        0.68000       -0.17377
C         -5.18381        2.05288        1.16170
C         -3.96581       -0.11129        1.83086
H         -3.15744        4.12916        2.03107
H         -5.39321        2.03578        2.24015
H         -6.11989        1.74027        0.67441
H         -4.87558       -0.71604        1.82249
H         -3.12440       -0.76321        1.58694
H         -3.81590        0.25011        2.84992
C         -1.19618       -3.94930        0.12520
C         -1.16726       -3.34979        1.41109
C         -0.75528       -2.03136        1.51201
C         -0.46002       -1.29817        0.39313
C         -0.59734       -1.84033       -0.85672
C         -0.99691       -3.15275       -1.03087
O         -1.38399       -5.35142       -0.00090
C         -1.53878       -4.11865        2.68870
H         -0.64816       -1.55972        2.47266
H         -0.37191       -1.21416       -1.70229
C         -1.16712       -3.69172       -2.45918
C          4.48251        0.73878       -0.68807
C          3.83299       -0.52119       -0.72309
C          2.50337       -0.58081       -0.34417
C          1.84491        0.52821        0.11823
C          2.49460        1.72729        0.24754
C          3.82776        1.85666       -0.10881
O          5.77095        0.88869       -1.26658
C          4.52429       -1.80568       -1.20645
H          1.95356       -1.50179       -0.42494
H          1.93723        2.56927        0.62075
C          4.52877        3.20825        0.09989
C         -0.28366       -4.79940        3.25505
C         -2.10514       -3.15990        3.76087
C         -2.62964       -5.16741        2.40542
C         -2.24052       -4.79342       -2.51494
C         -1.62872       -2.56523       -3.41287
C          0.18060       -4.23523       -2.95810
C         -0.17421       -6.09915        0.00776
H         -0.51360       -5.34163        4.17187
H          0.13638       -5.50623        2.54359
H          0.48521       -4.06139        3.48271
H         -2.47342       -3.71765        4.62161
H         -1.34688       -2.47017        4.12843
H         -2.93502       -2.57795        3.36164
H         -2.93909       -5.66859        3.32222
H         -3.50732       -4.69778        1.96249
H         -2.27657       -5.93087        1.71659
H         -3.18815       -4.42527       -2.12323
H         -2.40404       -5.12978       -3.53846
H         -1.95132       -5.66029       -1.92638
H         -1.87801       -2.96702       -4.39458
H         -2.51362       -2.06408       -3.02150
H         -0.85123       -1.81776       -3.56274
H          0.09455       -4.62109       -3.97350
H          0.93560       -3.44938       -2.95875
H          0.54187       -5.03952       -2.32154
H          0.68167       -5.43743        0.14726
H         -0.20369       -6.83090        0.81497
H         -0.06773       -6.63621       -0.93453
C          5.74875        1.24351       -2.64362
C          6.02573       -1.78922       -0.86815
C          3.91873       -3.04727       -0.51082
C          4.32154       -1.94958       -2.72253
C          3.92700        3.95284        1.31347
C          6.02856        3.01836        0.39132
C          4.33788        4.07747       -1.15236
H          6.17623       -1.64843        0.20166
H          6.50301       -2.72507       -1.15779
H          6.54066       -0.98374       -1.38556
H          4.49176       -3.94270       -0.75047
H          3.92444       -2.92641        0.57213
H          2.89378       -3.23067       -0.83017
H          3.26010       -1.98402       -2.96697
H          4.75636       -1.11062       -3.26022
H          4.78389       -2.86386       -3.09369
H          4.50412        4.84839        1.54275
H          2.90357        4.27284        1.12387
H          3.92992        3.31712        2.19854
H          6.51060        3.97257        0.60253
H          6.17250        2.36740        1.25300
H          6.54416        2.57044       -0.45436
H          4.81274        5.05043       -1.02884
H          3.27868        4.24081       -1.34982
H          4.76772        3.60298       -2.03112
H          4.72038        1.33557       -2.99555
H          6.26832        2.19092       -2.78587
H          6.26601        0.48157       -3.22642
