58
-89.86640776
P          1.64065        0.10068        0.90832
C          1.85538        1.83669        0.49752
C          2.09978        2.15870       -0.81820
C          2.24019        3.48175       -1.19287
C          2.13605        4.47703       -0.24181
C          1.89603        4.15125        1.07869
C          1.75587        2.82609        1.44977
H          1.56600        2.56503        2.47759
H          2.16777        1.36570       -1.54589
C          3.18052       -0.79744        0.70259
C          3.15905       -2.17306        0.68041
C          4.33940       -2.87508        0.51191
C          5.53143       -2.19264        0.36810
C          5.54711       -0.81188        0.39180
C          4.36546       -0.11266        0.55945
H          4.36019        0.96531        0.57374
H          2.21889       -2.69158        0.78569
C          1.12192       -0.15054        2.65530
C         -0.30606        0.26135        2.97526
C         -1.35790       -0.67367        2.39362
P         -1.74083       -0.30646        0.63648
C         -3.08362       -1.36923        0.08673
C         -4.05344       -0.86549       -0.75003
C         -5.07036       -1.68725       -1.20149
C         -5.10490       -3.01265       -0.81641
C         -4.12354       -3.51800        0.01311
C         -3.10746       -2.69337        0.46233
H         -2.32615       -3.08256        1.09513
H         -4.00374        0.16625       -1.05902
C         -2.23035        1.42031        0.54790
C         -3.45699        1.80080        1.04322
C         -3.82965        3.13302        1.00936
C         -2.96579        4.07670        0.48917
C         -1.73105        3.69202        0.00628
C         -1.36511        2.35944        0.03851
H         -0.39688        2.05222       -0.31541
H         -4.11688        1.05443        1.45672
Pd         0.14233       -0.67648       -0.67810
Cl         1.88306       -0.87511       -2.09370
Cl        -1.27327       -1.56013       -2.18799
H         -1.04477       -1.71559        2.47532
H         -2.30929       -0.58259        2.92380
H         -0.42799        0.30872        4.06886
H         -0.48880        1.28439        2.62020
H          1.26937       -1.20882        2.87931
H          1.84421        0.39678        3.26560
H          2.42699        3.73351       -2.22382
H          1.81462        4.92902        1.82015
H          4.32657       -3.95235        0.48844
H          6.47676       -0.27929        0.27622
H         -5.82954       -1.29433       -1.85762
H         -4.14460       -4.55496        0.30567
H         -4.79162        3.43301        1.39132
H         -1.04880        4.42717       -0.38761
H          2.24290        5.51001       -0.53034
H          6.45094       -2.73875        0.23402
H         -5.89477       -3.65535       -1.16962
H         -3.25378        5.11503        0.46444
