111
-148.55310088
P         -2.66218        1.86486       -0.04653
P          0.14116        0.47829        0.38881
C         -1.86183        1.95407        1.57783
C         -0.61380        1.39510        1.74690
C         -3.58090        3.42392       -0.43646
C         -2.82259        4.29249       -1.41626
C         -2.48994        2.56938        2.64188
H         -3.47443        2.98750        2.51111
C         -1.85900        2.63015        3.87253
H         -2.34855        3.11067        4.70386
C         -0.60544        2.07301        4.03787
H         -0.11610        2.11703        4.99693
C          0.01696        1.44781        2.97250
H          0.98636        0.98906        3.08971
Pd        -1.04759        1.09744       -1.50925
Cl        -2.45456        1.58184       -3.18387
Cl         0.65454        0.25923       -2.71448
C         -4.93489        2.89873       -0.94785
C         -4.04194        0.63421       -0.14713
H         -2.66411        3.76820       -2.35925
H         -3.36818        5.21220       -1.63967
H         -1.83994        4.56664       -1.02515
H         -4.88161        2.79314       -2.04026
H         -5.72944        3.63693       -0.75991
H         -3.86371        0.05379       -1.06240
C         -5.28906        1.52356       -0.31204
C         -4.06796       -0.27074        1.06541
H         -3.71542        3.95131        0.51637
H         -5.74196        1.68362        0.67606
H         -6.05491        1.00224       -0.90616
H         -3.14311       -0.84462        1.14917
H         -4.17594        0.31224        1.98190
H         -4.90012       -0.97709        1.01977
C         -1.34527       -3.81847        0.66923
C         -0.80252       -3.33965       -0.55035
C         -0.35137       -2.03283       -0.59469
C         -0.34937       -1.24206        0.52357
C         -0.76164       -1.73993        1.73204
C         -1.23062       -3.03786        1.84814
O         -2.04881       -5.05171        0.70005
C         -0.74752       -4.18584       -1.83103
H         -0.02097       -1.59677       -1.52062
H         -0.74143       -1.08616        2.58598
C         -1.65359       -3.55933        3.23013
C          4.66134        1.01034        0.16503
C          3.83993        2.10516        0.54393
C          2.47201        1.90047        0.62783
C          1.91437        0.69345        0.29312
C          2.69124       -0.32477       -0.19384
C          4.06343       -0.18426       -0.31706
O          6.06705        1.07918        0.34286
C          4.38107        3.51037        0.85681
H          1.82134        2.68873        0.96721
H          2.21026       -1.24148       -0.48888
C          4.83930       -1.31618       -1.01161
C         -0.61719       -5.68512       -1.50745
C         -2.01576       -3.92896       -2.65917
C          0.48611       -3.80259       -2.67988
C         -0.80923       -2.89798        4.34304
C         -3.13277       -3.22177        3.47193
C         -1.43174       -5.07871        3.34102
C         -3.43825       -4.92674        0.42246
H         -1.49043       -6.05475       -0.97624
H         -0.51171       -6.27471       -2.41780
H          0.25585       -5.86778       -0.88179
H         -2.91050       -4.19953       -2.10305
H         -2.09618       -2.87461       -2.92315
H         -2.00383       -4.50807       -3.58207
H          1.39693       -3.86555       -2.08535
H          0.59475       -4.47527       -3.53024
H          0.40602       -2.79311       -3.07988
H          0.25544       -3.01094        4.14025
H         -1.02941       -1.83585        4.43975
H         -1.01648       -3.35641        5.30974
H         -3.46146       -3.58395        4.44568
H         -3.29232       -2.14424        3.44257
H         -3.76913       -3.67192        2.71372
H         -2.05948       -5.62329        2.64007
H         -0.39398       -5.33161        3.12640
H         -1.66848       -5.43746        4.34238
H         -3.68782       -5.50093       -0.46958
H         -4.01463       -5.32540        1.25721
H         -3.70236       -3.88012        0.26515
C          6.48196        0.60341        1.61229
C          5.82631        3.70334        0.36522
C          3.51556        4.56778        0.13633
C          4.31754        3.75495        2.37336
C          4.12323       -1.68428       -2.32991
C          6.27566       -0.90619       -1.37967
C          4.87750       -2.54898       -0.09361
H          5.90642        3.46527       -0.69487
H          6.15677        4.73170        0.50944
H          6.51537        3.05787        0.90488
H          3.47530        4.36658       -0.93382
H          2.49512        4.58325        0.51526
H          3.92756        5.56701        0.27524
H          4.67321        4.75452        2.62197
H          3.29592        3.66095        2.74048
H          4.93169        3.03648        2.91301
H          4.02465       -0.80836       -2.97040
H          4.68130       -2.44258       -2.87839
H          3.12542       -2.07976       -2.15110
H          6.27404        0.00838       -1.97166
H          6.87453       -0.72609       -0.49010
H          6.77083       -1.68566       -1.95829
H          3.87040       -2.88942        0.14532
H          5.38350       -2.32390        0.84363
H          5.40557       -3.37389       -0.57118
H          7.56904        0.65376        1.67741
H          6.04573        1.21489        2.40060
H          6.15955       -0.42793        1.74849
