105
-153.06921103
Cl         0.41396        3.14339        2.43729
Pd        -0.19351        1.79185        0.74524
P         -0.74903        0.49274       -1.15772
N          0.40149       -0.76648       -1.59160
C          0.48561       -2.15562       -1.40458
C         -0.03833       -2.84037       -0.27508
C          0.27656       -4.20201       -0.08042
C         -0.09926       -4.87028        1.22174
C          0.76058       -6.10188        1.53896
C          0.78636       -7.05220        0.33813
C          1.37080       -6.35898       -0.90459
C          1.01073       -4.89806       -1.04436
C          1.48087       -4.21593       -2.15964
C          1.24742       -2.87547       -2.32333
H          1.65264       -2.35385       -3.17323
H          2.06363       -4.75213       -2.88960
H          2.46430       -6.44127       -0.88718
H          1.34810       -7.96610        0.57742
H          1.78368       -5.78027        1.77068
H         -0.02666       -4.13826        2.03597
C         -0.72382       -2.09500        0.80830
C          0.04412       -1.18915        1.58020
C         -0.55578       -0.54092        2.65869
C         -1.87115       -0.77288        2.96824
C         -2.64432       -1.65939        2.22570
C         -4.07666       -1.88464        2.65706
C         -4.89551       -2.84805        1.77442
C         -4.01166       -3.93107        1.14569
C         -2.90132       -3.27296        0.31778
C         -2.06937       -2.32552        1.14055
H         -2.27131       -4.02245       -0.17333
H         -4.60461       -4.62632        0.53484
H         -5.38742       -2.28195        0.97407
H         -4.57732       -0.90979        2.71327
H         -2.32314       -0.26012        3.80031
H          0.02494        0.16116        3.22999
N          1.36209       -0.92406        1.20781
P          1.87769        0.75267        1.08986
C          2.70495        1.03450       -0.47483
C          2.39157        2.15415       -1.20895
C          2.88492        2.29270       -2.49232
C          3.68422        1.30601       -3.05186
C          4.01508        0.19811       -2.28360
C          3.52715        0.06289       -0.99635
H          3.75806       -0.81207       -0.40924
H          4.64947       -0.56378       -2.70366
C          4.20608        1.45233       -4.43863
H          2.63243        3.16137       -3.07625
H          1.74644        2.90875       -0.78765
C          2.86455        1.26891        2.48603
C          2.91910        0.45621        3.59234
C          3.66202        0.84401        4.69316
C          4.35743        2.04614        4.68574
C          4.28204        2.85550        3.55951
C          3.53909        2.46545        2.45971
H          3.47336        3.09244        1.58457
H          4.80459        3.79675        3.55123
C          5.13315        2.48073        5.88029
H          3.70333        0.21544        5.56621
H          2.38286       -0.47929        3.58497
H          1.65668       -1.35690        0.33968
H          1.25489       -0.27086       -1.82268
C         -0.61772        1.70540       -2.47845
C         -1.04855        2.99998       -2.31579
C         -0.90680        3.91017       -3.34530
C         -0.34366        3.52625       -4.55481
C          0.07834        2.21259       -4.70657
C         -0.06392        1.30554       -3.67185
H          0.26534        0.28568       -3.78711
H          0.52550        1.90582       -5.63664
C         -0.15661        4.51402       -5.65320
H         -1.23194        4.92812       -3.21425
H         -1.49646        3.29187       -1.38148
C         -2.39948       -0.18749       -1.32095
C         -2.59078       -1.09087       -2.34035
C         -3.85595       -1.59428       -2.59099
C         -4.93743       -1.19892       -1.81557
C         -4.72787       -0.27347       -0.80168
C         -3.46501        0.23276       -0.56193
H         -3.31202        0.98258        0.19388
H         -5.56248        0.05856       -0.20819
C         -6.29553       -1.74655       -2.08492
H         -4.00896       -2.30284       -3.38690
H         -1.74557       -1.39704       -2.93677
Cl        -2.21456        2.76064        0.63659
H          1.05453       -6.88433       -1.81475
H          0.39892       -6.61554        2.44098
H         -0.23666       -7.38573        0.12248
H         -1.15214       -5.16867        1.18596
H         -3.56129       -4.53921        1.93991
H         -3.35437       -2.70768       -0.50042
H         -4.06210       -2.26124        3.68698
H         -5.71348       -3.30278        2.35046
H          5.17470        1.95393       -4.43744
H          4.33019        0.47966       -4.91677
H          3.52356        2.03874       -5.05558
H          5.51573        1.62297        6.43521
H          5.98689        3.09602        5.59290
H          4.50786        3.06670        6.55521
H         -0.21632        4.03234       -6.63018
H         -0.92251        5.29010       -5.61982
H          0.81760        4.99874       -5.57574
H         -6.70661       -1.32839       -3.00472
H         -6.26353       -2.83181       -2.19217
H         -6.98619       -1.51423       -1.27313
