111
-148.55077069
P         -2.68941        1.97062       -0.31511
P          0.08207        0.58527        0.32791
C         -1.87073        2.27680        1.27737
C         -0.64592        1.70123        1.53623
C         -3.66018        3.45669       -0.84527
C         -3.27579        3.90638       -2.23738
C         -2.47124        3.06884        2.23563
H         -3.43663        3.50510        2.03845
C         -1.83780        3.28551        3.44737
H         -2.30680        3.90373        4.19535
C         -0.60810        2.70861        3.70103
H         -0.11685        2.87492        4.64559
C         -0.01136        1.90944        2.74254
H          0.94107        1.43768        2.92793
Pd        -1.09453        0.92156       -1.62993
Cl        -2.54305        1.05199       -3.33602
Cl         0.58873        0.03788       -2.82465
C         -5.12221        2.97808       -0.72145
C         -4.04031        0.71051       -0.20460
H         -3.81680        4.80883       -2.53171
H         -2.20550        4.11416       -2.30713
H         -3.50956        3.13223       -2.96915
H         -5.73715        3.47800       -1.48397
H         -5.53883        3.29299        0.24660
H         -3.72286       -0.15058       -0.80889
C         -5.23913        1.43304       -0.85228
C         -4.27179        0.29177        1.23098
H         -3.44032        4.25159       -0.12004
H         -6.17415        1.07445       -0.39758
H         -5.30401        1.16380       -1.91691
H         -5.06123       -0.45971        1.30819
H         -3.36363       -0.12498        1.67186
H         -4.56856        1.14841        1.83894
C         -1.21248       -3.70558        1.13197
C         -0.59533       -3.36253       -0.09795
C         -0.23734       -2.04192       -0.30232
C         -0.40318       -1.10212        0.67938
C         -0.89976       -1.44839        1.90801
C         -1.28164       -2.75149        2.17988
O         -1.79193       -4.99103        1.30279
C         -0.34094       -4.38191       -1.21856
H          0.16210       -1.71490       -1.24699
H         -0.99158       -0.67966        2.65468
C         -1.78349       -3.10813        3.58810
C          4.61337        0.90395        0.03359
C          3.79780        1.83437       -0.66052
C          2.42284        1.73790       -0.51884
C          1.85984        0.72180        0.20717
C          2.63933       -0.24233        0.79135
C          4.01993       -0.20299        0.69207
O          6.01916        1.09728        0.09559
C          4.38283        2.93798       -1.55582
H          1.76736        2.45380       -0.98439
H          2.14834       -1.03680        1.32652
C          4.84615       -1.34632        1.30183
C         -1.55479       -4.41286       -2.15961
C          0.90859       -3.98666       -2.03910
C         -0.07406       -5.78491       -0.64444
C         -3.30751       -2.92528        3.65081
C         -1.40758       -4.55473        3.95731
C         -1.13496       -2.18918        4.64835
C         -3.15381       -5.07024        0.90100
H         -1.72820       -3.42930       -2.59590
H         -1.40019       -5.12068       -2.97348
H         -2.45841       -4.70252       -1.62863
H          1.16860       -4.77058       -2.74994
H          0.74342       -3.07687       -2.61419
H          1.76661       -3.82847       -1.38647
H          0.76072       -5.76022        0.05528
H         -0.94175       -6.16895       -0.11414
H          0.16792       -6.49300       -1.43660
H         -3.58151       -1.89293        3.43617
H         -3.81156       -3.55927        2.92560
H         -3.68998       -3.17583        4.63994
H         -1.70472       -4.78837        4.97937
H         -1.89605       -5.27101        3.30128
H         -0.33167       -4.70475        3.87396
H         -1.38786       -2.52167        5.65489
H         -0.04912       -2.19700        4.55631
H         -1.48054       -1.16051        4.55583
H         -3.25706       -5.79791        0.09634
H         -3.76296       -5.40385        1.74098
H         -3.50704       -4.09675        0.55838
C          6.44761        1.88276        1.20067
C          5.69561        2.47778       -2.21562
C          3.40319        3.28521       -2.70028
C          4.62669        4.20062       -0.71605
C          5.18291       -1.00843        2.76180
C          4.04870       -2.67084        1.27180
C          6.13879       -1.58367        0.50007
H          6.46823        2.29089       -1.47393
H          5.54024        1.55631       -2.77573
H          6.07490        3.23333       -2.90317
H          2.50542        3.77619       -2.32791
H          3.86687        3.96567       -3.41405
H          3.10394        2.38674       -3.23953
H          3.69711        4.55085       -0.26796
H          5.33036        4.00764        0.09020
H          5.03031        5.00565       -1.32963
H          5.76378       -0.09168        2.82997
H          4.27275       -0.86829        3.34456
H          5.76051       -1.80829        3.22448
H          3.68371       -2.88013        0.26666
H          4.67543       -3.50703        1.58089
H          3.19535       -2.64482        1.94789
H          6.79570       -0.71838        0.54147
H          5.90985       -1.77939       -0.54697
H          6.69230       -2.43665        0.89189
H          5.59165        2.19648        1.79951
H          7.13072        1.30121        1.81949
H          6.98056        2.76202        0.83917
