87
-129.17953577
P         -1.58135       -0.30087       -0.34554
P          1.63939        0.29703        0.49066
C         -1.09246        0.93319       -1.55545
C          1.53686       -0.80464       -0.94515
C          0.05270        0.69641       -2.30409
C          0.44254        1.64453       -3.27092
C         -0.34335        2.76916       -3.46346
C         -1.48333        2.97970       -2.71502
C         -1.85618        2.05639       -1.75790
C          2.18270       -2.00429       -0.75290
C          2.12718       -2.99299       -1.71641
C          1.40149       -2.77973       -2.86755
C          0.72778       -1.58873       -3.07622
C          0.80644       -0.56924       -2.10806
Cl         0.73812       -0.41997        3.54184
Cl        -1.80982       -2.01042        2.40153
H         -2.08013        3.86272       -2.87446
H         -2.75026        2.20571       -1.17592
H          2.72302       -2.17012        0.16753
H          2.63619       -3.92999       -1.56075
H         -0.04963        3.48818       -4.20923
H          1.33904       -3.55250       -3.61494
C         -2.57826       -4.14036       -2.55972
C         -1.71866       -4.19341       -1.47098
C         -1.44543       -3.01705       -0.78435
C         -1.99601       -1.82551       -1.19451
C         -2.83956       -1.77874       -2.27946
C         -3.13665       -2.94324       -2.96319
H         -2.80741       -5.04831       -3.09107
C         -1.12475       -5.48155       -1.02163
H         -0.79440       -3.03770        0.07300
H         -3.25272       -0.83173       -2.58987
H         -3.79864       -2.91462       -3.81306
C         -5.18525        1.19363        2.00817
C         -5.25814       -0.00926        1.33372
C         -4.17069       -0.46157        0.61044
C         -3.02051        0.29051        0.56644
C         -2.94506        1.48594        1.24152
C         -4.02905        1.96084        1.96805
H         -6.02912        1.54442        2.57741
H         -6.15943       -0.59860        1.37568
H         -4.20948       -1.40434        0.08963
H         -2.03655        2.06052        1.20325
C         -3.92666        3.24838        2.70743
C          5.96007        0.17945        1.90983
C          4.94584       -0.04656        2.81928
C          3.62980       -0.01255        2.40316
C          3.33521        0.24215        1.08579
C          4.34302        0.46959        0.17680
C          5.67442        0.44816        0.57818
H          6.98792        0.14764        2.22905
H          5.17956       -0.25064        3.85137
H          2.82541       -0.18714        3.09678
H          4.09514        0.65823       -0.85507
C          6.76753        0.66562       -0.40812
C          0.44331        4.67138        0.16539
C         -0.03715        3.89180        1.19863
C          0.34149        2.56646        1.29107
C          1.17271        2.02545        0.33754
C          1.68122        2.80815       -0.67177
C          1.31831        4.14651       -0.77534
H          0.15182        5.70503        0.08806
H         -0.69291        4.31918        1.93949
H          0.02833        1.95852        2.12536
H          2.35741        2.37496       -1.38892
C          1.84620        5.00262       -1.87239
Pd        -0.23456       -0.66461        1.53714
C          1.67279        1.45730       -4.08825
C         -0.07898       -1.42454       -4.31784
H          1.42176        1.14596       -5.10291
H          2.24232        2.38535       -4.15431
H          2.32746        0.70009       -3.65498
H         -0.65606       -2.32641       -4.52707
H         -0.78570       -0.59876       -4.23046
H          0.56404       -1.23074       -5.17714
H         -1.73178       -5.93433       -0.23652
H         -1.05255       -6.19252       -1.84587
H         -0.11945       -5.33098       -0.62517
H         -3.28616        3.14039        3.58393
H         -3.50157        4.02828        2.07380
H         -4.90498        3.59187        3.04624
H          7.10826       -0.28368       -0.82385
H          6.43248        1.29401       -1.23470
H          7.62371        1.15762        0.05569
H          1.03585        5.36140       -2.50853
H          2.36894        5.87142       -1.46986
H          2.54780        4.45423       -2.50236
