87
-129.18749139
P         -1.58344       -0.46492       -0.17735
P          1.63852        0.47355        0.13818
C         -1.33318        0.83244       -1.39992
C          1.54081       -0.61676       -1.29802
C         -0.28926        0.75727       -2.31581
C         -0.11048        1.81399       -3.23030
C         -0.98107        2.89031       -3.19858
C         -2.01048        2.94562       -2.28352
C         -2.18188        1.91227       -1.38374
C          2.37473       -1.70901       -1.30507
C          2.31593       -2.62839       -2.33350
C          1.40772       -2.45152       -3.35424
C          0.55209       -1.36355       -3.36703
C          0.62133       -0.41840       -2.32490
Cl         1.12258        0.47515        3.33842
Cl        -1.38849       -1.43199        2.93080
H         -2.67591        3.79316       -2.26678
H         -2.98398        1.94812       -0.66539
H          3.07726       -1.84657       -0.50005
H          2.97190       -3.48346       -2.33322
H         -0.84032        3.69581       -3.89925
H          1.35115       -3.16951       -4.15482
C         -1.61917       -4.59669       -2.05901
C         -2.38500       -3.58423       -2.62018
C         -2.36845       -2.32973       -2.02019
C         -1.59929       -2.10314       -0.90278
C         -0.84814       -3.11326       -0.34910
C         -0.85500       -4.36614       -0.93205
H         -1.62962       -5.57284       -2.51330
C         -3.22475       -3.84604       -3.82070
H         -2.95204       -1.52399       -2.43468
H         -0.26620       -2.92001        0.53747
H         -0.26601       -5.16149       -0.50563
C         -5.41421        0.32141        2.15821
C         -5.34061       -0.76185        1.30492
C         -4.17904       -1.00343        0.59607
C         -3.10361       -0.15887        0.74119
C         -3.17390        0.91982        1.59259
C         -4.32975        1.17225        2.32116
H         -6.31871        0.51294        2.71000
H         -6.18653       -1.42014        1.19307
H         -4.10473       -1.84970       -0.06700
H         -2.32268        1.57146        1.70055
C         -4.40544        2.34929        3.22862
C          5.48370       -0.32095        2.44678
C          5.34529        0.84471        1.71960
C          4.17622        1.08858        1.02382
C          3.15722        0.16539        1.05629
C          3.29317       -0.99638        1.78104
C          4.45689       -1.25353        2.49544
H          6.39410       -0.51415        2.98818
H          6.14669        1.56487        1.69532
H          4.05256        1.99727        0.45791
H          2.48342       -1.70692        1.80787
C          4.60131       -2.51712        3.26827
C          1.19099        4.89065       -0.82397
C          0.44646        4.33199        0.19596
C          0.58779        2.99062        0.49585
C          1.46181        2.21904       -0.23429
C          2.21411        2.77385       -1.24324
C          2.08812        4.12373       -1.55394
H          1.08348        5.93544       -1.06111
H         -0.24231        4.94011        0.75911
H          0.02859        2.54453        1.30196
H          2.89509        2.15154       -1.80017
C          2.89151        4.73995       -2.64479
Pd        -0.05377       -0.24810        1.56345
C          0.99026        1.79713       -4.23344
C         -0.41965       -1.22037       -4.48682
H          1.76163        1.07310       -3.96881
H          0.61040        1.54035       -5.22294
H          1.46780        2.77497       -4.30387
H          0.07696       -0.86270       -5.38948
H         -0.88631       -2.17810       -4.72043
H         -1.21670       -0.51891       -4.23829
H         -2.68079       -4.44046       -4.55630
H         -4.12950       -4.39146       -3.54870
H         -3.52675       -2.91559       -4.30374
H         -4.68494        3.24746        2.67612
H         -5.14374        2.19394        4.01650
H         -3.44343        2.53443        3.70885
H          3.65434       -2.80304        3.72852
H          4.92140       -3.33385        2.61975
H          5.33779       -2.41087        4.06594
H          2.24299        5.16676       -3.41133
H          3.52462        5.53894       -2.25629
H          3.53955        4.00577       -3.12559
