171
-217.84070141
P         -1.68184        0.62870        0.26265
P          1.51205       -0.16245       -0.30404
C         -1.00106        1.70786       -1.01572
C          0.64051       -0.95718       -1.66499
C         -0.37104        1.25418       -2.16876
C          0.20721        2.19787       -3.03884
C          0.11622        3.54613       -2.73689
C         -0.51335        3.97744       -1.58937
C         -1.06419        3.05052       -0.72575
C          0.85311       -2.28584       -1.93749
C          0.17880       -2.89751       -2.97574
C         -0.71247       -2.16875       -3.73591
C         -0.94409       -0.82724       -3.47715
C         -0.23318       -0.20064       -2.43557
Cl         2.18570        1.30104        2.52062
Cl        -0.84789        0.69181        3.47046
C         -1.91615       -0.06561       -4.30874
C          0.93673        1.78248       -4.26847
H         -0.56743        5.02934       -1.36112
H         -1.53952        3.37091        0.18977
H          1.55549       -2.84386       -1.34237
H          0.34584       -3.94084       -3.18820
H          0.55934        4.26131       -3.40934
H         -1.23321       -2.64133       -4.55117
C         -2.76736       -3.66907       -0.68921
C         -3.46483       -2.63471       -1.29944
C         -3.07536       -1.33297       -1.01150
C         -2.03947       -1.08720       -0.14419
C         -1.37389       -2.12414        0.46746
C         -1.72843       -3.44169        0.20618
H         -3.06067       -4.67813       -0.90923
H         -3.58970       -0.49676       -1.45110
H         -0.58188       -1.90761        1.16204
C         -5.66254        2.40256        1.50211
C         -5.33512        2.33438        0.15377
C         -4.09529        1.80696       -0.18571
C         -3.23357        1.36656        0.78924
C         -3.57468        1.44399        2.11505
C         -4.80036        1.96846        2.50121
H         -6.61857        2.80513        1.78251
H         -3.78740        1.73942       -1.21539
H         -2.86473        1.10106        2.84444
C          4.09462       -3.31244        1.73912
C          3.09395       -2.70891        2.48783
C          2.29905       -1.75863        1.86247
C          2.51896       -1.40235        0.55234
C          3.53396       -1.99457       -0.15983
C          4.33597       -2.97217        0.41535
H          4.70540       -4.06622        2.20107
H          1.50839       -1.28536        2.41288
H          3.69303       -1.69481       -1.17969
C          4.24137        2.99248       -2.07082
C          3.48708        3.31743       -0.95066
C          2.67334        2.33201       -0.40870
C          2.60487        1.08808       -0.98277
C          3.33498        0.79339       -2.10855
C          4.17946        1.74222       -2.67339
H          4.90557        3.73255       -2.47715
H          2.09169        2.52578        0.47396
H          3.22193       -0.17695       -2.55932
Pd         0.27218        0.65996        1.53214
C         -5.34902       -1.65921       -2.70625
C         -4.65574       -2.94671       -2.21753
C         -5.69036       -3.78338       -1.44115
C         -4.16439       -3.73750       -3.44219
H         -4.66605       -1.03839       -3.28450
H         -6.19915       -1.89596       -3.34583
H         -5.72094       -1.07282       -1.86619
H         -5.27279       -4.73784       -1.12322
H         -6.02500       -3.25075       -0.55110
H         -6.56439       -3.99249       -2.05775
H         -4.99358       -3.98670       -4.10412
H         -3.44372       -3.15365       -4.01244
H         -3.68172       -4.66779       -3.14478
C         -1.20163       -4.37488        2.46798
C         -1.02417       -4.58547        0.95298
C          0.47271       -4.59284        0.60079
C         -1.61353       -5.96019        0.58209
H         -0.74178       -5.18531        3.03281
H         -0.74797       -3.43971        2.79180
H         -2.25896       -4.33993        2.72961
H          0.99795       -5.38386        1.13544
H          0.61538       -4.75970       -0.46616
H          0.94116       -3.64647        0.86185
H         -1.49396       -6.16429       -0.48181
H         -1.10824       -6.75664        1.12837
H         -2.67373       -6.01248        0.82914
C         -5.76623        2.66811       -2.33232
C         -6.33463        2.81654       -0.90678
C         -6.65827        4.30212       -0.66403
C         -7.62268        1.97907       -0.80623
H         -4.85424        3.25242       -2.45388
H         -5.54209        1.62613       -2.55967
H         -6.48415        3.01914       -3.07344
H         -7.11445        4.45422        0.31341
H         -5.75143        4.90509       -0.70772
H         -7.35074        4.67854       -1.41679
H         -7.40644        0.92133       -0.95537
H         -8.09135        2.08976        0.17095
H         -8.34728        2.28530       -1.56055
C         -4.11731        1.54485        4.91623
C         -5.21726        2.07489        3.97502
C         -6.49466        1.24609        4.20279
C         -5.48525        3.55079        4.32220
H         -4.42581        1.62807        5.95816
H         -3.90385        0.49466        4.71851
H         -3.19389        2.11164        4.79954
H         -6.32722        0.20180        3.93969
H         -6.80457        1.28588        5.24692
H         -7.32034        1.61566        3.59585
H         -5.76423        3.66064        5.37001
H         -4.59572        4.15487        4.14444
H         -6.29380        3.95982        3.71754
C          1.80022       -2.24134        4.63146
C          2.90849       -3.08217        3.96575
C          4.22535       -2.82465        4.72199
C          2.53095       -4.56991        4.07242
H          2.03019       -1.17731        4.57820
H          0.83586       -2.40829        4.15403
H          1.69454       -2.50388        5.68382
H          4.52162       -1.77984        4.63059
H          4.11769       -3.05374        5.78203
H          5.03560       -3.43804        4.32994
H          3.30868       -5.20639        3.65186
H          2.38517       -4.86214        5.11218
H          1.60666       -4.77162        3.53320
C          5.11953       -5.18120       -0.46418
C          5.44894       -3.68045       -0.36921
C          6.79206       -3.48527        0.35828
C          5.58481       -3.11674       -1.79772
H          5.05846       -5.63542        0.52420
H          4.16170       -5.33366       -0.96160
H          5.88340       -5.71377       -1.03045
H          7.60584       -3.95683       -0.19239
H          7.02310       -2.42505        0.46005
H          6.77059       -3.92054        1.35655
H          4.66508       -3.25745       -2.36537
H          5.82056       -2.05290       -1.77706
H          6.38518       -3.62148       -2.33859
C          5.01534        4.97189        0.14703
C          3.57717        4.72291       -0.34108
C          2.61787        4.88429        0.85526
C          3.19991        5.76635       -1.40880
H          5.72747        4.91481       -0.67542
H          5.10808        5.95797        0.60179
H          5.30232        4.22838        0.89041
H          1.58460        4.71097        0.55517
H          2.86646        4.18720        1.65518
H          2.67797        5.89169        1.26658
H          2.19041        5.58957       -1.77867
H          3.23666        6.77527       -0.99834
H          3.87927        5.72797       -2.25940
C          6.53218        1.29113       -3.37767
C          5.08074        1.41463       -3.87330
C          4.99104        2.53257       -4.93060
C          4.67102        0.08758       -4.54309
H          6.87102        2.22279       -2.92533
H          6.61725        0.50552       -2.62703
H          7.20721        1.04979       -4.19857
H          3.96466        2.66671       -5.26936
H          5.34341        3.48544       -4.53860
H          5.60091        2.29159       -5.80119
H          4.79902       -0.75463       -3.86399
H          3.63024        0.11647       -4.86468
H          5.28498       -0.10757       -5.42222
H         -2.72427       -0.70943       -4.65835
H          1.89706        2.29442       -4.33425
H         -1.42885        0.36117       -5.18613
H         -2.36579        0.75038       -3.74063
H          0.36441        2.02811       -5.16412
H          1.13531        0.71022       -4.27603
