45
-71.81578060
C          0.30619        0.63002        2.47284
P          0.93263        0.63645        0.75869
P         -1.61266        0.26376       -1.05690
C         -2.39387       -0.09319       -2.66550
Cl         1.74772       -2.38656        0.48417
H          0.66995        1.50431        3.00501
H         -2.76605       -1.11369       -2.67436
Cl        -1.06990       -2.87991       -1.32276
C          0.28686        2.04098       -0.17221
C         -0.81056        1.87870       -0.98941
C         -1.31461        2.95177       -1.69520
C         -0.70476        4.18958       -1.59003
C          0.39991        4.35034       -0.77586
C          0.89699        3.27348       -0.06296
H         -2.18422        2.81784       -2.31773
H         -1.09434        5.02922       -2.14178
H          0.87428        5.31441       -0.69407
H          1.75793        3.38307        0.57690
Pd         0.05356       -1.18973       -0.36993
H         -1.66646        0.02389       -3.46370
H          0.64074       -0.26665        2.98672
H         -3.22401        0.58609       -2.83666
C         -4.44618       -0.20702        2.46415
C         -3.98061        1.04754        2.12099
C         -3.12879        1.19499        1.04120
C         -2.75500        0.08915        0.31321
C         -3.20760       -1.16346        0.65687
C         -4.05996       -1.31455        1.73478
H         -5.10943       -0.32254        3.30579
H         -4.27837        1.91029        2.69391
H         -2.74955        2.16575        0.76546
H         -2.86522       -2.01668        0.09322
H         -4.41541       -2.29455        2.00766
C          5.46533        0.48624        0.39997
C          4.67484        0.59380       -0.72701
C          3.29796        0.64455       -0.59980
C          2.72353        0.58940        0.64970
C          3.50709        0.47904        1.77579
C          4.88383        0.42852        1.65120
H          6.53789        0.44391        0.30266
H          5.12759        0.63455       -1.70403
H          2.66549        0.72447       -1.47037
H          3.04255        0.42726        2.74694
H          5.50109        0.34017        2.53014
H         -0.77981        0.64689        2.46909
