59
-75.79996053
Cl         1.58435        0.70616        2.32438
P          1.52449        0.14601       -0.83999
P         -1.60388       -0.28801       -0.73863
C          0.51720        0.25605       -2.38631
H          0.17487        1.28644       -2.50535
H          1.15754        0.02323       -3.24280
C         -0.65491       -0.67562       -2.27499
H         -0.31538       -1.71247       -2.20544
H         -1.32881       -0.60595       -3.13456
C          2.76288       -1.22891       -0.93061
H          2.61191       -1.73731       -1.89116
C          2.65513        1.58986       -0.56297
H          2.25996        2.14977        0.29385
C         -2.84252       -1.60321       -0.32837
H         -2.78444       -1.74992        0.75706
C         -2.73759        1.16380       -0.95668
H         -2.71340        1.41484       -2.02390
C          4.11332       -0.48319       -0.89987
H          4.86607       -1.10157       -0.38948
H          4.48951       -0.34755       -1.92465
C          3.98986        0.90358       -0.21170
H          4.83389        1.54916       -0.49192
H          4.06472        0.77495        0.87843
C         -4.17986       -0.94523       -0.70699
H         -4.42105       -1.20514       -1.74704
H         -4.99798       -1.36263       -0.10015
C         -4.11573        0.59853       -0.55996
H         -4.31806        0.86971        0.48547
H         -4.91122        1.08199       -1.14717
C          2.59249       -2.22273        0.21456
H          2.57420       -1.66680        1.16140
H          3.48482       -2.86168        0.27234
C          2.72300        2.49797       -1.78713
H          3.13518        1.92526       -2.62835
H          1.70392        2.76816       -2.09318
C         -2.56535       -2.91824       -1.04789
H         -2.60388       -2.74488       -2.13127
H         -1.53445       -3.23415       -0.84132
C         -2.32729        2.37203       -0.11802
H         -3.15098        3.09960       -0.11961
H         -2.22650        2.05537        0.92847
C          1.35083       -3.09105        0.08084
H          0.44441       -2.48708        0.05285
H          1.24884       -3.79189        0.91247
H          1.37444       -3.67528       -0.84104
C          3.53369        3.76593       -1.55643
H          4.57486        3.54311       -1.31911
H          3.13048        4.34311       -0.72213
H          3.53402        4.41580       -2.43460
C         -3.53364       -4.02459       -0.65661
H         -4.56343       -3.75527       -0.89797
H         -3.49533       -4.21909        0.41690
H         -3.31220       -4.96362       -1.16907
C         -1.04888        3.04500       -0.59093
H         -1.13381        3.37124       -1.62915
H         -0.80153        3.92278        0.01045
H         -0.19824        2.36666       -0.53299
Cl        -1.61570       -0.21742        2.43766
Pd        -0.00078        0.01279        0.90078
