111
-148.55516071
P         -1.68221        2.64687        1.06194
P         -0.39326       -0.19399        0.57077
C         -1.18273        1.62442        2.47740
C         -0.68975        0.35472        2.26169
C         -0.65240        4.17771        0.95036
C          0.23211        4.13923       -0.27806
C         -1.27107        2.11740        3.76354
H         -1.62277        3.12342        3.92422
C         -0.88773        1.32575        4.83245
H         -0.96039        1.70872        5.83729
C         -0.40717        0.04868        4.61342
H         -0.10402       -0.56505        5.44565
C         -0.29784       -0.43508        3.32192
H          0.10736       -1.41607        3.12940
Pd        -1.66532        1.20653       -0.74755
Cl        -2.77260        2.82274       -1.84254
Cl        -1.55207       -0.28405       -2.42169
C         -1.69881        5.30982        0.94337
C         -3.36529        3.39674        1.25340
H         -0.37116        4.05080       -1.18380
H          0.83367        5.04692       -0.36659
H          0.91159        3.28455       -0.25551
H         -1.87922        5.61444       -0.09669
H         -1.29975        6.20364        1.44630
H         -3.83380        3.33323        0.26251
C         -3.04298        4.86432        1.58754
C         -4.21317        2.67566        2.27989
H         -0.05323        4.20965        1.86964
H         -2.98418        4.97594        2.67893
H         -3.86819        5.51915        1.26829
H         -4.32501        1.61858        2.02798
H         -3.76230        2.72933        3.27115
H         -5.21095        3.11453        2.35109
C         -0.65596       -4.69526       -0.06341
C         -1.82278       -3.89664       -0.20086
C         -1.72073       -2.53712        0.04696
C         -0.51067       -1.96087        0.33137
C          0.63892       -2.70749        0.34157
C          0.60883       -4.07199        0.10571
O         -0.76247       -6.10920       -0.02002
C         -3.18639       -4.44647       -0.65300
H         -2.59227       -1.90566        0.00524
H          1.57386       -2.20620        0.52851
C          1.95241       -4.81399        0.00471
C          3.66249        1.34881       -0.81047
C          3.21737        1.63011        0.50696
C          1.99508        1.11915        0.90903
C          1.20161        0.42222        0.03606
C          1.57247        0.25379       -1.27140
C          2.78335        0.73389       -1.73814
O          4.99680        1.65347       -1.18981
C          4.04773        2.45690        1.50095
H          1.64511        1.25940        1.91625
H          0.88011       -0.24053       -1.93037
C          3.12582        0.57144       -3.22689
C         -4.14992       -4.47561        0.54435
C         -3.76824       -3.52883       -1.75175
C         -3.07679       -5.85685       -1.25815
C          2.91350       -4.01155       -0.90130
C          2.57040       -4.94541        1.40612
C          1.80360       -6.21035       -0.62386
C         -0.96676       -6.60344        1.29278
H         -3.77776       -5.12817        1.33199
H         -4.27447       -3.47973        0.96842
H         -5.13279       -4.83812        0.24437
H         -4.69421       -3.94030       -2.15247
H         -3.99351       -2.53375       -1.37231
H         -3.06307       -3.42150       -2.57544
H         -2.76476       -6.58281       -0.51096
H         -4.03417       -6.18792       -1.65983
H         -2.34508       -5.87260       -2.06515
H          3.84747       -4.55215       -1.05262
H          2.46337       -3.83842       -1.87836
H          3.16585       -3.04388       -0.47079
H          3.53626       -5.44790        1.36025
H          2.72274       -3.96578        1.85814
H          1.92434       -5.51985        2.06752
H          1.30304       -6.14554       -1.58933
H          2.77566       -6.67924       -0.77485
H          1.21624       -6.86811        0.01254
H         -1.04292       -7.69047        1.25985
H         -0.13226       -6.31994        1.93236
H         -1.88455       -6.19041        1.70848
C          5.91850        0.59541       -0.95960
C          4.88124        3.52550        0.77049
C          3.12851        3.20568        2.49272
C          4.96790        1.51948        2.29688
C          3.83109       -0.77630       -3.44089
C          1.84085        0.59898       -4.08646
C          4.01930        1.72399       -3.71973
H          5.41805        4.15597        1.47887
H          5.61705        3.07202        0.11096
H          4.23931        4.16513        0.16554
H          2.38955        3.80258        1.95976
H          2.60343        2.51989        3.15588
H          3.70819        3.87911        3.12360
H          4.38389        0.77803        2.84170
H          5.64998        0.98563        1.63944
H          5.56368        2.07742        3.01884
H          3.18876       -1.59977       -3.13008
H          4.08340       -0.92288       -4.49075
H          4.74977       -0.83701       -2.86217
H          2.08544        0.61820       -5.14814
H          1.22274       -0.28142       -3.91753
H          1.24428        1.48338       -3.86417
H          4.98250        1.72288       -3.21566
H          3.54388        2.68569       -3.52960
H          4.20752        1.64401       -4.79007
H          5.41148       -0.26104       -0.51320
H          6.37535        0.29619       -1.90274
H          6.70877        0.93859       -0.29209
