111
-148.54815459
P         -2.71012        1.88936       -0.14519
P          0.14583        0.56697        0.31545
C         -1.84660        2.10368        1.44138
C         -0.58377        1.57851        1.61385
C         -3.82765        3.33299       -0.47089
C         -3.54137        3.98507       -1.80520
C         -2.45044        2.78429        2.48010
H         -3.44665        3.17511        2.35482
C         -1.78233        2.94561        3.68179
H         -2.25456        3.47780        4.49137
C         -0.51397        2.42334        3.84671
H          0.00446        2.54590        4.78341
C          0.08525        1.73121        2.80991
H          1.06599        1.29687        2.92706
Pd        -1.05417        1.13788       -1.58514
Cl        -2.49247        1.47593       -3.26413
Cl         0.65352        0.20383       -2.71433
C         -5.23604        2.70977       -0.36858
C         -3.94177        0.50879       -0.13213
H         -2.49498        4.28875       -1.88342
H         -3.74636        3.29285       -2.62247
H         -4.16417        4.86885       -1.96238
H         -5.91856        3.23216       -1.05470
H         -5.64675        2.87499        0.63833
H         -3.57203       -0.25663       -0.82851
C         -5.21863        1.18466       -0.67175
C         -4.09107       -0.06781        1.25867
H         -3.65394        4.05352        0.33925
H         -6.10437        0.69330       -0.24310
H         -5.28965        1.03053       -1.75866
H         -4.81295       -0.88782        1.27883
H         -3.13822       -0.44752        1.63245
H         -4.43625        0.69657        1.95741
C         -1.33924       -3.70679        0.84925
C         -0.83584       -3.28229       -0.40653
C         -0.39799       -1.97594       -0.52533
C         -0.38192       -1.13041        0.55118
C         -0.75589       -1.57126        1.79339
C         -1.20426       -2.86751        1.98513
O         -2.01572       -4.95052        0.96037
C         -0.79962       -4.19248       -1.64312
H         -0.07164       -1.58776       -1.47361
H         -0.70887       -0.87848        2.61500
C         -1.56598       -3.33313        3.40423
C          4.68277        0.86681        0.08729
C          3.88835        2.00943       -0.18851
C          2.51160        1.89618       -0.07759
C          1.92635        0.69351        0.21922
C          2.68367       -0.43756        0.37757
C          4.06400       -0.39456        0.27960
O          6.09293        0.99171        0.20286
C          4.50065        3.35997       -0.59199
H          1.87239        2.75008       -0.22361
H          2.17616       -1.36505        0.57790
C          4.86141       -1.70342        0.39200
C          0.38659       -3.81537       -2.56024
C         -0.60674       -5.66665       -1.24465
C         -2.10565       -4.02132       -2.43381
C         -3.04317       -3.01875        3.68569
C         -1.30359       -4.84049        3.57552
C         -0.69823       -2.60269        4.45418
C         -3.41617       -4.86654        0.72740
H          0.24833       -2.83774       -3.01934
H          1.32043       -3.80141       -1.99911
H          0.49358       -4.53602       -3.37055
H         -0.51731       -6.30217       -2.12533
H          0.29572       -5.78706       -0.64622
H         -1.44617       -6.03279       -0.65901
H         -2.23274       -2.98520       -2.74710
H         -2.10695       -4.64653       -3.32622
H         -2.96942       -4.29256       -1.83131
H         -3.69501       -3.51034        2.96747
H         -3.32943       -3.35137        4.68312
H         -3.22855       -1.94693        3.62341
H         -1.49452       -5.15778        4.60039
H         -1.94348       -5.43080        2.92432
H         -0.26863       -5.07976        3.33343
H          0.36095       -2.70124        4.21761
H         -0.94017       -1.54237        4.51058
H         -0.85974       -3.02048        5.44766
H         -3.95452       -5.22615        1.60418
H         -3.70644       -3.83575        0.51963
H         -3.68510       -5.49692       -0.11998
C          6.54342        1.27135        1.52224
C          3.52839        4.14990       -1.49742
C          4.78166        4.18968        0.66964
C          5.79852        3.16085       -1.39610
C          5.20359       -1.96649        1.86607
C          4.03131       -2.89312       -0.14349
C          6.14913       -1.64149       -0.44939
H          3.20612        3.54188       -2.34241
H          2.64414        4.47594       -0.95193
H          4.00818        5.04500       -1.89260
H          3.86318        4.36131        1.23047
H          5.48110        3.68041        1.32827
H          5.20675        5.15953        0.41242
H          6.56822        2.68306       -0.79500
H          5.61680        2.53234       -2.26728
H          6.19573        4.11467       -1.74233
H          5.76234       -2.89539        1.97742
H          5.80481       -1.16084        2.28081
H          4.29596       -2.04452        2.46423
H          3.66306       -2.68602       -1.14794
H          4.63647       -3.79825       -0.18875
H          3.17772       -3.11186        0.49647
H          5.91704       -1.40992       -1.48838
H          6.68049       -2.59252       -0.42385
H          6.82737       -0.87587       -0.08097
H          5.69669        1.34795        2.20551
H          7.21024        0.47707        1.85723
H          7.10049        2.20809        1.52701
