171
-217.84306599
P         -1.59759        0.40294       -0.31214
P          1.61539       -0.37019       -0.42452
C         -0.92326        1.40670       -1.63742
C          0.86867       -1.29448       -1.76945
C         -0.13917        0.83155       -2.63074
C          0.46046        1.67302       -3.58707
C          0.21681        3.03600       -3.54066
C         -0.58944        3.58187       -2.56465
C         -1.15066        2.76119       -1.60674
C          1.08277       -2.64905       -1.84363
C          0.47301       -3.39499       -2.83281
C         -0.36103       -2.77473       -3.73864
C         -0.58517       -1.40914       -3.68505
C          0.05490       -0.64436       -2.69055
Cl         1.69321        0.49967        2.76811
Cl        -1.45022       -0.37073        2.89612
C         -1.49086       -0.77931       -4.68491
C          1.33731        1.12204       -4.65547
H         -0.77547        4.64327       -2.54359
H         -1.77036        3.17990       -0.83052
H          1.73413       -3.12607       -1.12977
H          0.64618       -4.45698       -2.89396
H          0.66907        3.67287       -4.28212
H         -0.84972       -3.35372       -4.50411
C         -3.90598       -3.27098       -1.57971
C         -2.92452       -3.39669       -0.60394
C         -2.20577       -2.26049       -0.25767
C         -2.46349       -1.06004       -0.87040
C         -3.43866       -0.94931       -1.83105
C         -4.18560       -2.06120       -2.20386
H         -4.48685       -4.13161       -1.85286
H         -1.45605       -2.30405        0.51402
H         -3.62193        0.01659       -2.27022
C         -4.34325        2.79338        2.39530
C         -4.88288        1.77711        1.61644
C         -4.02304        1.06923        0.78687
C         -2.68814        1.38348        0.73148
C         -2.17395        2.39730        1.50073
C         -2.99141        3.11548        2.36281
H         -4.99798        3.33691        3.05006
H         -4.38667        0.25560        0.18524
H         -1.12112        2.61657        1.44300
C          4.20486       -2.88088        2.33171
C          2.88252       -3.25620        2.12910
C          2.12461       -2.50213        1.24332
C          2.66576       -1.41198        0.60720
C          3.96886       -1.04450        0.83554
C          4.76882       -1.77793        1.70294
H          4.81435       -3.44900        3.00881
H          1.09259       -2.75041        1.06436
H          4.34898       -0.16363        0.34967
C          3.98413        3.22538       -1.79828
C          2.93948        3.41202       -0.90110
C          2.22052        2.29375       -0.49851
C          2.53289        1.05403       -0.99656
C          3.56298        0.88561       -1.88883
C          4.31843        1.97483       -2.30578
H          4.55869        4.08265       -2.09419
H          1.41484        2.37707        0.21029
H          3.78880       -0.10583       -2.24523
Pd         0.06813        0.00450        1.28684
C         -3.56289       -5.85085       -0.35834
C         -2.63296       -4.71889        0.11827
C         -2.83844       -4.52390        1.63263
C         -1.17829       -5.13243       -0.16074
H         -3.43727       -6.03926       -1.42442
H         -3.34212       -6.77922        0.16838
H         -4.60795       -5.60522       -0.17044
H         -3.86386       -4.22251        1.84539
H         -2.63709       -5.44665        2.17641
H         -2.17829       -3.75338        2.02793
H         -0.92421       -6.05167        0.36664
H         -1.02496       -5.30028       -1.22620
H         -0.48433       -4.35652        0.15711
C         -5.44641       -0.56867       -3.83602
C         -5.33665       -1.97577       -3.21674
C         -6.66057       -2.29499       -2.49782
C         -5.10850       -2.99406       -4.34988
H         -4.52651       -0.29089       -4.34910
H         -6.25584       -0.52923       -4.56485
H         -5.65549        0.18087       -3.07296
H         -6.64932       -3.29999       -2.07738
H         -6.83462       -1.59414       -1.68195
H         -7.50393       -2.22929       -3.18500
H         -4.15917       -2.81205       -4.85144
H         -5.09420       -4.01492       -3.97041
H         -5.90050       -2.92958       -5.09582
C         -6.77424        0.32556        0.72687
C         -6.37922        1.44667        1.70905
C         -7.20300        2.70218        1.36796
C         -6.70539        0.98157        3.13962
H         -7.84116        0.11238        0.79110
H         -6.55596        0.61265       -0.30162
H         -6.24071       -0.59848        0.94916
H         -8.27120        2.48839        1.40128
H         -7.00423        3.51101        2.06996
H         -6.96156        3.06012        0.36725
H         -7.75916        0.72025        3.23482
H         -6.11406        0.10454        3.40221
H         -6.48719        1.76170        3.86803
C         -1.94083        5.38449        2.32593
C         -2.37907        4.22194        3.23263
C         -1.15751        3.66223        3.98955
C         -3.38630        4.75433        4.26998
H         -1.48032        6.18314        2.90717
H         -1.21900        5.04859        1.58343
H         -2.79535        5.80152        1.79337
H         -1.44026        2.79669        4.58826
H         -0.36970        3.35002        3.30561
H         -0.73495        4.41243        4.65750
H         -2.92312        5.50763        4.90716
H         -4.24397        5.21950        3.78468
H         -3.74544        3.95092        4.91294
C          3.12539       -4.96533        3.99871
C          2.25254       -4.46841        2.82964
C          2.09657       -5.60638        1.80694
C          0.87130       -4.08228        3.39674
H          4.08682       -5.33698        3.64544
H          3.30587       -4.16566        4.71692
H          2.63496       -5.78299        4.52683
H          1.49403       -5.28801        0.95782
H          3.06883       -5.91619        1.42417
H          1.61642       -6.47519        2.25682
H          0.43315       -4.90970        3.95445
H          0.95613       -3.22853        4.06873
H          0.17322       -3.81600        2.60559
C          6.33503       -1.03323        3.50984
C          6.21828       -1.37927        2.01428
C          6.65763       -0.15180        1.19329
C          7.15703       -2.55164        1.67445
H          6.08251       -1.88908        4.13471
H          7.34914       -0.72323        3.76128
H          5.65799       -0.21939        3.76891
H          7.69067        0.11472        1.41615
H          6.59223       -0.35766        0.12589
H          6.03764        0.71585        1.41835
H          8.19693       -2.28549        1.86322
H          6.92595       -3.43239        2.27226
H          7.06437       -2.82608        0.62375
C          3.83598        5.29068        0.48915
C          2.63939        4.81354       -0.35278
C          1.38139        4.81428        0.53688
C          2.40542        5.78650       -1.52362
H          3.65044        6.28044        0.90596
H          4.02174        4.60488        1.31562
H          4.74368        5.34442       -0.11103
H          1.51617        4.17695        1.41055
H          1.16127        5.81996        0.89463
H          0.51342        4.46119       -0.01869
H          1.58924        5.43863       -2.15558
H          2.14909        6.78091       -1.15859
H          3.29347        5.88130       -2.14703
C          5.04275        1.07204       -4.54218
C          5.51388        1.75713       -3.24654
C          6.54934        0.86321       -2.54109
C          6.19339        3.08787       -3.62368
H          4.55740        0.11903       -4.33574
H          4.33559        1.70460       -5.07654
H          5.88422        0.87882       -5.20739
H          6.89007        1.32817       -1.61630
H          6.12590       -0.10989       -2.29467
H          7.41985        0.69747       -3.17554
H          5.49274        3.75804       -4.12157
H          6.58840        3.59169       -2.74171
H          7.02712        2.91650       -4.30453
H         -1.80025        0.21894       -4.37255
H          1.82957        0.20472       -4.32930
H         -2.39286       -1.37614       -4.81889
H         -1.00130       -0.69452       -5.65596
H          2.11378        1.83825       -4.92549
H          0.76405        0.89849       -5.55585
