111
-148.55193720
P         -2.22948        2.25844        0.71279
P          0.11877        0.14224        0.43469
C         -1.28482        1.76515        2.17589
C         -0.27078        0.84297        2.04854
C         -2.41299        4.09907        0.67810
C         -1.93689        4.66154       -0.64312
C         -1.56631        2.31315        3.41088
H         -2.35134        3.04608        3.50149
C         -0.83585        1.92314        4.52018
H         -1.05546        2.34976        5.48526
C          0.17268        0.98742        4.39187
H          0.74014        0.68176        5.25541
C          0.45550        0.44449        3.15119
H          1.24036       -0.28627        3.03187
Pd        -1.33666        1.12009       -1.09084
Cl        -2.94193        2.05383       -2.34789
Cl        -0.27187        0.03215       -2.73537
C         -3.91794        4.30772        0.94598
C         -4.01085        1.75134        0.75809
H         -2.53123        4.26220       -1.46651
H         -2.02450        5.75032       -0.67107
H         -0.89311        4.40015       -0.83369
H         -4.26025        5.21491        0.42698
H         -4.08514        4.49886        2.01617
H         -4.15553        1.05662       -0.08023
C         -4.75877        3.07653        0.50655
C         -4.36575        1.07913        2.06733
H         -1.80392        4.49297        1.50322
H         -5.72505        3.05876        1.03132
H         -5.00338        3.16820       -0.56198
H         -4.24579        1.77192        2.90162
H         -5.40263        0.73471        2.07302
H         -3.72185        0.21799        2.26012
C         -1.24004       -4.20066        0.57475
C         -2.18148       -3.14828        0.44538
C         -1.70837       -1.84672        0.42445
C         -0.36302       -1.58165        0.43230
C          0.55481       -2.59915        0.45207
C          0.14845       -3.92348        0.48714
O         -1.68687       -5.52451        0.83042
C         -3.69513       -3.39434        0.34466
H         -2.39165       -1.01467        0.41249
H          1.59943       -2.34290        0.45647
C          1.20802       -5.03668        0.46594
C          4.37471        1.16386       -0.84832
C          3.67643        0.12644       -1.51693
C          2.38743       -0.16894       -1.10418
C          1.81880        0.47213       -0.03473
C          2.52883        1.40643        0.67497
C          3.82551        1.74318        0.32368
O          5.59827        1.65571       -1.37589
C          4.26624       -0.63031       -2.71738
H          1.78906       -0.88150       -1.64406
H          2.04555        1.88832        1.50682
C          4.59582        2.75191        1.19029
C         -4.37005       -2.28605       -0.49567
C         -3.99406       -4.73155       -0.35716
C         -4.30927       -3.38463        1.75256
C          1.62956       -5.36459        1.90616
C          0.67375       -6.30114       -0.23180
C          2.45611       -4.58542       -0.32365
C         -1.84063       -5.82767        2.21134
H         -3.86951       -2.16779       -1.45639
H         -5.41473       -2.52804       -0.68934
H         -4.35554       -1.32717        0.01872
H         -3.61695       -5.57435        0.21661
H         -5.06642       -4.87496       -0.48728
H         -3.52589       -4.76101       -1.34049
H         -3.88175       -4.16701        2.37494
H         -4.12546       -2.43100        2.24672
H         -5.38695       -3.54012        1.70929
H          2.03949       -4.48263        2.39778
H          0.78306       -5.70827        2.49584
H          2.39028       -6.14466        1.92246
H         -0.15906       -6.73530        0.31559
H          0.32643       -6.06633       -1.23739
H          1.44893       -7.06307       -0.30963
H          2.17560       -4.23787       -1.31740
H          2.98831       -3.78444        0.18711
H          3.15822       -5.41023       -0.44361
H         -1.19564       -6.66543        2.47579
H         -1.58119       -4.96214        2.82228
H         -2.87240       -6.11723        2.40979
C          5.43994        2.73073       -2.29383
C          3.72876       -2.07738       -2.76623
C          3.86103        0.08836       -4.01333
C          5.79955       -0.73105       -2.62032
C          4.31765        4.17546        0.68428
C          4.14568        2.65641        2.66629
C          6.10825        2.46553        1.16403
H          4.22324       -2.64767       -3.55226
H          3.91227       -2.58478       -1.82025
H          2.66044       -2.10705       -2.97411
H          4.25514       -0.42941       -4.88733
H          2.77598        0.13051       -4.10603
H          4.23363        1.10991       -4.03029
H          6.09446       -1.19599       -1.68018
H          6.20529       -1.32867       -3.43624
H          6.26710        0.24888       -2.66795
H          4.64422        4.29900       -0.34546
H          3.25119        4.39652        0.72264
H          4.83788        4.91470        1.29283
H          4.77708        3.27479        3.30391
H          3.12173        3.00214        2.79999
H          4.21079        1.62972        3.02563
H          6.64658        3.14057        1.82887
H          6.51885        2.59153        0.16535
H          6.31073        1.44327        1.48175
H          6.00120        3.59658       -1.94282
H          5.83302        2.44265       -3.26862
H          4.38620        2.99485       -2.39171
