45
-71.81497536
C          2.26752        1.50133        2.33343
P          1.49431        0.96387        0.77111
P         -0.99607        0.06843       -0.92334
C         -0.32012       -0.58405       -2.48805
Cl         1.51405       -1.67471        2.44647
H          2.81410        0.67383        2.77658
H          0.74453       -0.37712       -2.54533
Cl        -1.28361       -2.64017        0.63236
C          0.43849        2.22645        0.03020
C         -0.63526        1.82583       -0.73419
C         -1.43661        2.76217       -1.35419
C         -1.15552        4.10926       -1.20854
C         -0.07446        4.51135       -0.44785
C          0.72753        3.56832        0.17069
H         -2.27614        2.43246       -1.94502
H         -1.77951        4.84390       -1.69031
H          0.14707        5.56022       -0.33823
H          1.58089        3.87040        0.75561
Pd         0.12801       -0.91440        0.85478
H         -0.81632       -0.11330       -3.33191
H          1.50207        1.83146        3.02986
H         -0.47087       -1.65864       -2.53822
C         -5.44744       -0.66940       -0.33767
C         -4.73966        0.10368        0.56116
C         -3.38764        0.32321        0.36520
C         -2.75578       -0.22760       -0.72651
C         -3.45620       -1.00224       -1.62289
C         -4.80787       -1.22335       -1.42904
H         -6.50009       -0.84363       -0.18530
H         -5.23707        0.53283        1.41535
H         -2.81888        0.92133        1.06019
H         -2.94549       -1.43675       -2.46666
H         -5.35959       -1.83104       -2.12736
C          4.50362       -0.51890       -2.29482
C          4.30237       -1.22656       -1.12583
C          3.39460       -0.76426       -0.19121
C          2.70257        0.40055       -0.42790
C          2.89201        1.10509       -1.59429
C          3.79865        0.64516       -2.53218
H          5.20981       -0.87802       -3.02554
H          4.84525       -2.13955       -0.94439
H          3.19671       -1.31578        0.71396
H          2.32788        2.00720       -1.76788
H          3.95256        1.19380       -3.44683
H          2.95754        2.31927        2.14713
