111
-148.55307702
P         -1.61527        2.82568       -0.04360
P         -0.52892       -0.08798        0.49121
C         -1.65993        2.13809        1.63893
C         -1.25170        0.83893        1.85600
C         -0.35815        4.17946       -0.13292
C          0.74914        3.81487       -1.09903
C         -2.06196        2.91578        2.70638
H         -2.33759        3.94422        2.54154
C         -2.08170        2.37949        3.98241
H         -2.39985        2.98599        4.81463
C         -1.68732        1.07191        4.19242
H         -1.69684        0.65702        5.18687
C         -1.25966        0.30171        3.12597
H         -0.91212       -0.70853        3.27536
Pd        -1.33571        0.96509       -1.39653
Cl        -2.54639        1.96846       -2.98957
Cl        -0.74608       -0.86353       -2.56558
C         -1.18246        5.41382       -0.55309
C         -3.14245        3.77968       -0.47725
H          1.27078        2.90826       -0.78561
H          0.34448        3.62898       -2.09608
H          1.48661        4.61665       -1.18268
H         -1.04300        5.57839       -1.63027
H         -0.79092        6.31942       -0.06585
H         -3.30929        3.60736       -1.54821
C         -2.69884        5.23647       -0.25449
C         -4.35547        3.34233        0.31563
H          0.02951        4.29956        0.88716
H         -2.90806        5.51855        0.78635
H         -3.30389        5.91884       -0.87107
H         -5.24660        3.90020        0.01919
H         -4.55848        2.27873        0.17123
H         -4.20988        3.50479        1.38368
C         -0.88934       -4.61843        0.68435
C          0.25992       -3.97711        1.21335
C          0.33318       -2.59628        1.13551
C         -0.70595       -1.86068        0.62856
C         -1.86326       -2.46682        0.21688
C         -2.00189       -3.84455        0.26482
O         -0.90985       -6.03101        0.53761
C          1.43866       -4.75228        1.82244
H          1.21913       -2.07279        1.45179
H         -2.65267       -1.84510       -0.16948
C         -3.32831       -4.47654       -0.18504
C          3.78998        1.25380       -0.04033
C          3.22060        0.32486       -0.94841
C          1.90286       -0.05251       -0.75789
C          1.18976        0.38770        0.32432
C          1.76490        1.20736        1.25907
C          3.07595        1.63192        1.12563
O          5.05582        1.83541       -0.31767
C          3.98480       -0.24004       -2.15503
H          1.39299       -0.66618       -1.47981
H          1.16512        1.53034        2.09139
C          3.68606        2.52469        2.21713
C          2.45700       -5.07657        0.71868
C          2.14328       -3.90740        2.90853
C          0.96058       -6.04751        2.50332
C         -4.51184       -3.52549        0.10459
C         -3.27383       -4.74310       -1.69714
C         -3.60938       -5.78450        0.57674
C         -0.40763       -6.49008       -0.71135
H          2.82363       -4.16214        0.25288
H          3.31301       -5.61608        1.12315
H          2.01187       -5.68900       -0.06168
H          1.42620       -3.54933        3.64681
H          2.89480       -4.49865        3.43129
H          2.65549       -3.04647        2.48145
H          1.78847       -6.56360        2.98885
H          0.20748       -5.82787        3.25935
H          0.52088       -6.73506        1.78531
H         -4.50975       -3.21068        1.14781
H         -4.47783       -2.63628       -0.52301
H         -5.46257       -4.01979       -0.09389
H         -4.20923       -5.17488       -2.05197
H         -3.09932       -3.81715       -2.24471
H         -2.46979       -5.43069       -1.94779
H         -3.60674       -5.61014        1.65217
H         -4.57990       -6.19704        0.30217
H         -2.85853       -6.54004        0.36005
H         -1.17957       -7.05877       -1.22951
H         -0.09969       -5.64641       -1.33041
H          0.44447       -7.14856       -0.54375
C          4.99090        3.02578       -1.09362
C          3.75582        0.67117       -3.37054
C          5.48938       -0.36214       -1.85419
C          3.47911       -1.65981       -2.50076
C          3.42885        3.99932        1.87139
C          3.04426        2.22420        3.59103
C          5.19697        2.26771        2.36126
H          4.27479        0.28851       -4.24891
H          2.69402        0.73665       -3.60736
H          4.11443        1.68001       -3.18093
H          5.65466       -0.97594       -0.96934
H          6.01991       -0.81993       -2.68872
H          5.93902        0.61070       -1.67297
H          3.50502       -2.30457       -1.62276
H          2.45996       -1.64379       -2.88384
H          4.10204       -2.11588       -3.26980
H          2.35968        4.19911        1.80853
H          3.85039        4.65756        2.63061
H          3.87129        4.26386        0.91421
H          2.00093        2.53477        3.62563
H          3.09388        1.15946        3.81770
H          3.56309        2.76001        4.38560
H          5.38919        1.21492        2.56539
H          5.61823        2.85413        3.17743
H          5.73324        2.53460        1.45404
H          3.95438        3.27614       -1.32205
H          5.45034        3.84635       -0.54282
H          5.54424        2.88869       -2.02245
