171
-217.84619643
P         -1.62113        0.44876       -0.37262
P          1.61792       -0.40496       -0.34060
C         -0.88002        1.38495       -1.71216
C          0.88505       -1.34136       -1.68626
C         -0.07622        0.75788       -2.65723
C          0.56266        1.54704       -3.63277
C          0.34415        2.91456       -3.64719
C         -0.47879        3.51318       -2.71680
C         -1.08197        2.74304       -1.74175
C          1.07955       -2.70104       -1.69929
C          0.48679       -3.47848       -2.67491
C         -0.31995       -2.88553       -3.62269
C         -0.53240       -1.51703       -3.62464
C          0.09765       -0.72040       -2.64933
Cl         1.57573        0.49432        2.80031
Cl        -1.56250       -0.41821        2.83561
C         -1.41007       -0.91505       -4.66593
C          1.45258        0.93692       -4.65861
H         -0.64682        4.57734       -2.74635
H         -1.71394        3.20275       -0.99883
H          1.69675       -3.15672       -0.94151
H          0.65120       -4.54342       -2.69222
H          0.82845        3.51240       -4.40085
H         -0.79716       -3.48876       -4.37659
C         -3.89233       -3.28425       -1.52697
C         -2.91656       -3.36760       -0.54076
C         -2.21081       -2.21355       -0.23104
C         -2.47734       -1.03590       -0.88319
C         -3.44498       -0.96721       -1.85450
C         -4.17689       -2.09889       -2.19536
H         -4.46490       -4.15859       -1.77260
H         -1.46150       -2.22699        0.54184
H         -3.63220       -0.01916       -2.32948
C         -4.36514        2.97003        2.21353
C         -4.91554        1.97231        1.41623
C         -4.05472        1.22798        0.62187
C         -2.70658        1.48186        0.61969
C         -2.17964        2.47457        1.40737
C         -2.99978        3.23500        2.22974
H         -5.01353        3.54685        2.84435
H         -4.43816        0.42892        0.01157
H         -1.11551        2.64115        1.40121
C          4.31539       -3.04214        2.17346
C          2.93934       -3.20343        2.27671
C          2.13131       -2.40088        1.48194
C          2.68601       -1.46047        0.64914
C          4.04729       -1.30224        0.57387
C          4.89402       -2.09860        1.33385
H          4.95595       -3.66635        2.76892
H          1.05969       -2.49224        1.51985
H          4.44356       -0.54427       -0.07755
C          3.90277        3.31640       -1.51327
C          2.92387        3.40831       -0.53106
C          2.21382        2.25738       -0.21898
C          2.48930        1.07178       -0.85333
C          3.46289        0.99513       -1.81834
C          4.19343        2.12506       -2.16796
H          4.46989        4.19090       -1.77041
H          1.44657        2.28017        0.53525
H          3.65063        0.04441       -2.28759
Pd        -0.01472        0.04391        1.26669
C         -1.16904       -5.10101       -0.08335
C         -2.61044       -4.66136        0.22660
C         -3.56715       -5.80161       -0.17050
C         -2.76239       -4.40371        1.73845
H         -0.90081       -5.99406        0.48081
H         -1.05842       -5.32610       -1.14343
H         -0.45601       -4.31683        0.16663
H         -4.60361       -5.53093        0.03029
H         -3.47123       -6.04450       -1.22858
H         -3.34569       -6.70628        0.39569
H         -2.56700       -5.31040        2.31067
H         -2.07045       -3.63737        2.08474
H         -3.77272       -4.06820        1.97122
C         -5.40869       -0.68261       -3.91535
C         -5.32171       -2.05421       -3.21734
C         -6.65147       -2.31411       -2.48602
C         -5.10159       -3.13493       -4.29284
H         -4.47907       -0.44386       -4.43074
H         -6.20848       -0.67580       -4.65576
H         -5.61964        0.11090       -3.19880
H         -6.65355       -3.29346       -2.00862
H         -6.81765       -1.56514       -1.71175
H         -7.49221       -2.27695       -3.17851
H         -5.88588       -3.09674       -5.04868
H         -4.14466       -2.99394       -4.79379
H         -5.10807       -4.13472       -3.86087
C         -6.95423        1.79636       -0.03415
C         -6.41487        1.64261        1.40055
C         -7.21526        2.57727        2.32727
C         -6.61588        0.19080        1.87459
H         -8.02256        1.58456       -0.07426
H         -6.79686        2.81157       -0.39782
H         -6.45451        1.11417       -0.72088
H         -8.27744        2.33464        2.29698
H         -6.88529        2.48121        3.36148
H         -7.10572        3.61825        2.02366
H         -7.67361       -0.07101        1.89396
H         -6.11006       -0.51461        1.21608
H         -6.21492        0.05545        2.87884
C         -3.42011        5.02573        3.99134
C         -2.36330        4.28858        3.14722
C         -1.61184        5.32375        2.29105
C         -1.37377        3.58984        4.09977
H         -2.95057        5.77079        4.63354
H         -4.13815        5.54360        3.35572
H         -3.96230        4.33231        4.63391
H         -0.81058        4.85479        1.72313
H         -2.28767        5.80416        1.58384
H         -1.16694        6.09869        2.91501
H         -0.91490        4.30572        4.78128
H         -1.88323        2.83274        4.69530
H         -0.57479        3.09482        3.54901
C          2.91218       -3.97627        4.66512
C          2.35451       -4.23425        3.25249
C          2.74407       -5.64756        2.78602
C          0.81720       -4.14213        3.32125
H          3.99426       -4.09605        4.69544
H          2.67744       -2.96276        4.98996
H          2.48186       -4.67036        5.38681
H          2.36198       -5.84047        1.78359
H          3.82653       -5.76894        2.76044
H          2.33691       -6.40573        3.45476
H          0.41796       -4.85004        4.04734
H          0.49728       -3.14402        3.62049
H          0.36823       -4.37512        2.35731
C          6.84871       -0.84898        0.28737
C          6.42098       -1.95017        1.27833
C          7.04601       -3.28245        0.82598
C          6.94483       -1.57686        2.67710
H          6.44308        0.11979        0.57866
H          7.93418       -0.75572        0.25675
H          6.50898       -1.07698       -0.72275
H          8.13076       -3.20132        0.75828
H          6.81504       -4.08595        1.52437
H          6.66715       -3.57163       -0.15416
H          8.02632       -1.44250        2.66598
H          6.49200       -0.64710        3.02101
H          6.71250       -2.35158        3.40682
C          3.68564        5.78577       -0.04051
C          2.59260        4.72388        0.18850
C          2.47458        4.47686        1.70655
C          1.25732        5.26024       -0.35112
H          3.46992        6.69106        0.52689
H          4.66028        5.41670        0.27857
H          3.74936        6.06812       -1.09099
H          3.38909        4.03031        2.09606
H          2.30081        5.41090        2.24053
H          1.64831        3.80827        1.94290
H          0.97042        6.18211        0.15443
H          1.33039        5.46758       -1.41839
H          0.46114        4.53133       -0.20667
C          5.10562        3.14182       -4.28096
C          5.33663        2.07676       -3.19204
C          5.43371        0.69685       -3.87192
C          6.66638        2.35863       -2.46898
H          4.14898        2.98767       -4.77821
H          5.10541        4.14708       -3.86178
H          5.88863        3.10002       -5.03793
H          5.65017       -0.08550       -3.14487
H          4.50600        0.44446       -4.38419
H          6.23359        0.68613       -4.61220
H          6.66076        3.34369       -2.00356
H          6.84311        1.62096       -1.68663
H          7.50487        2.32119       -3.16420
H         -1.76404        0.07250       -4.36699
H          2.33146        1.55884       -4.82914
H         -2.28643       -1.53911       -4.84273
H         -0.87774       -0.81179       -5.61237
H          0.93191        0.82738       -5.61081
H          1.80177       -0.04882       -4.34825
