64
-97.21800970
Cl        -1.60586       -0.86327       -2.66516
Cl         1.61196       -1.20794       -2.92727
P          1.90697       -0.68842        0.26821
C          2.04953       -2.36556        1.04244
C          3.71130       -0.33385       -0.02149
P         -1.26735       -0.15941        0.46484
C          1.27669        0.56148        1.44599
C         -0.14568        0.81902        1.52859
C         -0.34375        1.94565        2.42746
C          0.96163        2.38094        2.89225
C          1.96668        1.51538        2.30070
H         -1.30590        2.36319        2.72973
H          1.15223        3.19733        3.59229
Pd         0.14424       -0.89985       -1.26938
H          3.04629        1.57871        2.44973
C         -5.05495        2.04602       -0.80679
C         -4.04053        2.74769       -0.18684
C         -2.88922        2.09094        0.20575
C         -2.75013        0.74114       -0.02593
C         -3.76437        0.03928       -0.63681
C         -4.91932        0.69070       -1.03142
H         -5.95286        2.55623       -1.11536
H         -4.14445        3.80566       -0.00966
H         -2.09471        2.63127        0.68910
H         -3.64484       -1.01825       -0.81057
H         -5.70916        0.14048       -1.51590
C         -2.56991       -3.98313        2.54075
C         -2.40115       -2.82439        3.27385
C         -2.01071       -1.65847        2.63945
C         -1.78922       -1.66454        1.28181
C         -1.96484       -2.81276        0.54462
C         -2.35497       -3.97942        1.17618
H         -2.87366       -4.89189        3.03433
H         -2.57205       -2.82749        4.33785
H         -1.87003       -0.74480        3.19519
H         -1.80787       -2.78621       -0.52196
H         -2.49255       -4.88193        0.60361
C          4.10108       -0.39168       -1.48225
H          3.90497        0.66739        0.38521
C          4.41038       -1.41896        0.82095
H          4.60566       -1.03947        1.83463
C          3.54623       -2.70454        0.90967
H          5.39765       -1.64329        0.39143
C          1.57147       -2.32489        2.47776
H          1.43002       -3.04917        0.44587
H          3.86082       -3.32638        1.76022
H          3.71411       -3.31970        0.01373
H          2.17096       -1.62366        3.06168
H          0.53277       -1.99725        2.54206
H          1.64612       -3.30503        2.95462
H          3.86751       -1.37202       -1.90033
H          3.56898        0.35249       -2.07615
H          5.17138       -0.22184       -1.61755
Fe         0.86340        2.43559        0.82676
C          2.27167        3.14267       -0.53565
C          1.46180        4.22862       -0.01123
C          0.07188        3.95874       -0.33785
C          0.02066        2.68899       -1.03922
C          1.37475        2.18635       -1.15375
H          3.35986        3.06666       -0.48473
H          1.83772        5.11733        0.50055
H         -0.77843        4.60708       -0.11544
H         -0.86747        2.21411       -1.46091
H          1.66246        1.28563       -1.69848
