111
-148.55713132
P         -2.45963        2.48114       -0.01761
P         -0.12801        0.38583        0.43977
C         -1.79157        2.23253        1.64475
C         -0.81523        1.28218        1.84677
C         -2.46358        4.26358       -0.50433
C         -1.41828        4.52397       -1.56725
C         -2.28260        2.95741        2.71141
H         -3.04151        3.70417        2.54222
C         -1.80149        2.71557        3.98663
H         -2.18467        3.27941        4.82141
C         -0.83836        1.74608        4.19127
H         -0.46945        1.55180        5.18493
C         -0.34504        1.02571        3.11810
H          0.40301        0.26169        3.26253
Pd        -1.37512        1.00229       -1.41821
Cl        -2.88052        1.53229       -2.99816
Cl        -0.29478       -0.49691       -2.69393
C         -3.91425        4.49823       -0.96643
C         -4.27431        2.11387       -0.10798
H         -0.41618        4.27619       -1.20823
H         -1.60897        3.91388       -2.45256
H         -1.41845        5.57086       -1.88013
H         -3.96128        4.36853       -2.05646
H         -4.21214        5.54127       -0.78035
H         -4.41370        1.51321       -1.01652
C         -4.90250        3.50812       -0.28778
C         -4.76153        1.35628        1.10940
H         -2.24952        4.83595        0.40773
H         -5.19130        3.89664        0.69842
H         -5.83926        3.43409       -0.86076
H         -4.63701        1.95153        2.01503
H         -5.82111        1.10388        1.02569
H         -4.20108        0.42993        1.25066
C         -0.86478       -4.09672        0.68862
C          0.42417       -3.57886        0.97633
C          0.61484       -2.21067        0.88501
C         -0.42747       -1.36892        0.59886
C         -1.69754       -1.85271        0.42708
C         -1.95668       -3.21188        0.49406
O         -1.05554       -5.49870        0.56342
C          1.61898       -4.47263        1.34501
H          1.59237       -1.78162        1.02053
H         -2.48556       -1.15065        0.21626
C         -3.39855       -3.70693        0.30130
C          4.37826        0.92540       -0.00905
C          3.61761        0.35929       -1.06292
C          2.25111        0.23379       -0.88613
C          1.62821        0.70645        0.23903
C          2.34683        1.36159        1.20575
C          3.71791        1.52178        1.09544
O          5.79663        0.85751       -0.03723
C          4.24936       -0.15564       -2.36543
H          1.64307       -0.24766       -1.63089
H          1.82268        1.73651        2.06562
C          4.47245        2.28912        2.19225
C          2.35703       -4.88962        0.06382
C          2.61091       -3.71074        2.25432
C          1.16016       -5.71728        2.12590
C         -3.66342       -4.97823        1.12775
C         -4.41290       -2.64124        0.77510
C         -3.64421       -3.97982       -1.19066
C         -0.84323       -5.99924       -0.75076
H          1.70579       -5.44758       -0.60425
H          2.71249       -4.01310       -0.47700
H          3.21833       -5.51578        0.29524
H          3.38847       -4.37912        2.62350
H          3.11147       -2.90440        1.71994
H          2.09825       -3.28543        3.11673
H          0.51508       -6.35011        1.52177
H          2.01250       -6.31956        2.43938
H          0.60357       -5.42743        3.01650
H         -4.70207       -5.29519        1.03712
H         -3.03814       -5.80401        0.79780
H         -3.45344       -4.80088        2.18199
H         -5.42630       -3.04199        0.76942
H         -4.18798       -2.31462        1.79010
H         -4.41217       -1.76953        0.12244
H         -3.48153       -3.07654       -1.77838
H         -2.97046       -4.74446       -1.56872
H         -4.66614       -4.31623       -1.36337
H         -1.74997       -6.48827       -1.10637
H         -0.57706       -5.18711       -1.42856
H         -0.04311       -6.73905       -0.73623
C          6.32942       -0.32372        0.54917
C          3.26689        0.00919       -3.54782
C          5.51736        0.64013       -2.72395
C          4.58381       -1.64696       -2.20985
C          4.89601        1.30926        3.29704
C          5.70742        3.00680        1.61783
C          3.56962        3.37696        2.81752
H          2.40617       -0.65097       -3.45409
H          2.90536        1.03511       -3.61108
H          3.75347       -0.23335       -4.49218
H          5.29518        1.70445       -2.79331
H          6.29355        0.51036       -1.97419
H          5.92627        0.31573       -3.68053
H          3.68235       -2.22248       -2.00149
H          5.03429       -2.04345       -3.11936
H          5.27860       -1.81233       -1.38968
H          5.42148        1.82782        4.09856
H          4.02561        0.81495        3.72807
H          5.55559        0.53749        2.90760
H          5.42069        3.67218        0.80419
H          6.20638        3.60125        2.38279
H          6.43314        2.29722        1.22824
H          3.14616        4.01958        2.04607
H          4.13921        4.00596        3.50131
H          2.75139        2.94291        3.39028
H          7.01207       -0.05475        1.35515
H          5.52713       -0.94784        0.94501
H          6.88978       -0.88448       -0.19865
