105
-153.06382422
Cl        -0.11430        1.99698        3.09496
Pd        -0.43416        1.32580        0.96420
P         -1.08684        0.50222       -1.14498
N         -0.69040       -1.00619       -1.96433
C          0.22364       -2.00135       -1.62034
C          0.35170       -2.49055       -0.29587
C          1.29690       -3.50267       -0.02338
C          1.39329       -4.05845        1.37842
C          2.63130       -4.93109        1.64170
C          2.88727       -5.89200        0.47797
C          3.10202       -5.11128       -0.82634
C          2.07674       -4.02991       -1.05724
C          1.90373       -3.55853       -2.35233
C          0.99359       -2.57375       -2.63160
H          0.87940       -2.21077       -3.63815
H          2.50561       -3.97304       -3.14329
H          4.09790       -4.65263       -0.82292
H          3.74536       -6.54528        0.69118
H          3.50838       -4.28561        1.77677
H          1.38047       -3.22533        2.08951
C         -0.65503       -2.12993        0.73243
C         -0.24706       -1.52213        1.95012
C         -1.18919       -1.37898        2.97286
C         -2.48411       -1.79440        2.80349
C         -2.90594       -2.37699        1.61465
C         -4.33897       -2.84284        1.52111
C         -4.78997       -3.21023        0.09859
C         -3.70849       -4.02070       -0.62028
C         -2.40142       -3.21980       -0.71433
C         -1.99081       -2.54679        0.57349
H         -1.58606       -3.87223       -1.05099
H         -4.05120       -4.33011       -1.61784
H         -4.99179       -2.29444       -0.47049
H         -4.99179       -2.06602        1.93847
H         -3.19519       -1.67060        3.60273
H         -0.88805       -0.90978        3.89303
N          1.04843       -1.01822        2.13932
P          1.61910        0.20051        1.00065
C          2.62861       -0.34524       -0.36246
C          2.42572        0.22792       -1.59299
C          3.23818       -0.12559       -2.65456
C          4.26806       -1.04056       -2.47925
C          4.46394       -1.59613       -1.22112
C          3.64842       -1.24283       -0.16090
H          3.79761       -1.66356        0.82085
H          5.25672       -2.31008       -1.07758
C          5.11481       -1.45446       -3.63161
H          3.07216        0.30356       -3.62775
H          1.62462        0.93671       -1.71732
C          2.53140        1.51323        1.81886
C          3.21868        1.26025        2.98152
C          3.91940        2.28022        3.59951
C          3.94393        3.55513        3.05006
C          3.24499        3.78870        1.87338
C          2.54570        2.76767        1.25579
H          2.00533        2.94544        0.33882
H          3.24787        4.77660        1.44546
C          4.67048        4.66117        3.73291
H          4.45022        2.09193        4.51707
H          3.21051        0.26720        3.40054
H          1.19561       -0.58368        3.04109
H         -0.97204       -0.91892       -2.93277
C         -0.61194        1.87186       -2.21519
C         -0.88339        3.16597       -1.84083
C         -0.50520        4.21830       -2.65203
C          0.15517        3.98337       -3.84980
C          0.40828        2.67085       -4.22341
C          0.02556        1.62147       -3.40834
H          0.23905        0.60585       -3.69573
H          0.90869        2.47567       -5.15654
C          0.54549        5.11452       -4.73619
H         -0.72182        5.23131       -2.35865
H         -1.39583        3.34734       -0.91137
C         -2.88168        0.52098       -1.06774
C         -3.57340        0.75435       -2.23267
C         -4.95701        0.76692       -2.22223
C         -5.65622        0.54446       -1.04389
C         -4.93964        0.32022        0.12296
C         -3.55771        0.29381        0.10587
H         -2.99983        0.11120        1.00991
H         -5.47140        0.17040        1.04685
C         -7.14433        0.58566       -1.02122
H         -5.50219        0.95575       -3.13116
H         -3.02762        0.93017       -3.14658
Cl        -2.25066        2.67530        0.98252
H          3.09785       -5.79604       -1.68412
H          2.52563       -5.48384        2.58591
H          2.02626       -6.56270        0.36405
H          0.48324       -4.63407        1.58499
H         -3.52570       -4.95175       -0.06924
H         -2.50121       -2.44965       -1.48777
H         -4.46307       -3.71046        2.18018
H         -5.74177       -3.75970        0.11825
H          5.26213       -0.62773       -4.32796
H          6.09915       -1.78678       -3.29893
H          4.64915       -2.27605       -4.17774
H          5.02557        5.40175        3.01492
H          4.01947        5.16873        4.44597
H          5.53814        4.28556        4.27711
H         -0.25721        5.35365       -5.43506
H          0.76494        6.01174       -4.15573
H          1.43620        4.87056       -5.31688
H         -7.49979        1.58785       -0.77812
H         -7.56164        0.30574       -1.98950
H         -7.54496       -0.10379       -0.27664
