111
-148.55471148
P         -2.65503        2.15675        0.53110
P          0.05144        0.51854        0.35578
C         -1.54832        2.09114        1.96530
C         -0.35196        1.41428        1.86761
C         -3.46785        3.81106        0.36341
C         -2.86247        4.61380       -0.76737
C         -1.89821        2.70185        3.15257
H         -2.84333        3.21374        3.23046
C         -1.04108        2.63898        4.23786
H         -1.31330        3.11567        5.16538
C          0.16061        1.96455        4.13499
H          0.82636        1.91352        4.98077
C          0.50462        1.34621        2.94628
H          1.43098        0.80115        2.85264
Pd        -1.44792        1.29725       -1.23784
Cl        -3.14089        1.87661       -2.58332
Cl        -0.00812        0.45603       -2.74763
C         -4.95158        3.44490        0.17299
C         -4.14472        1.07186        0.69500
H         -3.34410        5.58933       -0.86699
H         -1.79351        4.77681       -0.61044
H         -2.97732        4.09213       -1.71843
H         -5.16352        3.38375       -0.90341
H         -5.59817        4.24875        0.55665
H         -4.23352        0.53229       -0.25752
C         -5.29546        2.08445        0.84477
C         -3.99654        0.10415        1.84874
H         -3.32304        4.32696        1.32110
H         -5.49026        2.24294        1.91438
H         -6.22765        1.66800        0.43369
H         -3.13445       -0.55067        1.70473
H         -3.84742        0.64008        2.78793
H         -4.88370       -0.52345        1.96093
C         -0.94148       -3.90774        0.75196
C         -0.97635       -3.08298        1.90835
C         -0.67461       -1.73895        1.76407
C         -0.42873       -1.19900        0.52897
C         -0.51970       -1.96619       -0.60133
C         -0.81854       -3.31506       -0.53272
O         -0.93858       -5.32021        0.88366
C         -1.32322       -3.59514        3.31631
H         -0.60768       -1.09966        2.62713
H         -0.33420       -1.49257       -1.55007
C         -1.00255       -4.07434       -1.85667
C          4.47833        0.67175       -0.69963
C          3.64173        1.76500       -1.04368
C          2.30704        1.71566       -0.67408
C          1.78854        0.60624       -0.06062
C          2.56936       -0.49424        0.18022
C          3.91030       -0.51114       -0.16241
O          5.88547        0.77207       -0.86492
C          4.16379        2.99264       -1.80665
H          1.64712        2.54280       -0.87117
H          2.10962       -1.35323        0.63770
C          4.71820       -1.80017        0.05582
C         -0.04502       -3.64389        4.16970
C         -2.33684       -2.63587        3.97858
C         -1.97667       -4.98776        3.28839
C         -1.67021       -5.44567       -1.65704
C         -1.92090       -3.25484       -2.79102
C          0.36598       -4.26009       -2.53313
C          0.36900       -5.85616        1.00271
H         -0.26472       -3.98509        5.18101
H          0.68966       -4.32176        3.73932
H          0.41399       -2.65820        4.24043
H         -2.64177       -3.00851        4.95612
H         -1.91863       -1.64168        4.12703
H         -3.23111       -2.53848        3.36394
H         -1.28269       -5.74182        2.92476
H         -2.29965       -5.29026        4.28426
H         -2.84674       -4.99080        2.63276
H         -1.03275       -6.11491       -1.08415
H         -2.61180       -5.33982       -1.11938
H         -1.87632       -5.92522       -2.61364
H         -2.13100       -3.80356       -3.70861
H         -2.87094       -3.03854       -2.30328
H         -1.46710       -2.30751       -3.07713
H          1.03798       -4.84543       -1.90847
H          0.26152       -4.77465       -3.48791
H          0.84099       -3.29769       -2.72127
H          0.30705       -6.94183        1.08001
H          0.96356       -5.59048        0.13015
H          0.85638       -5.45954        1.89183
C          6.56755        1.28412        0.27272
C          3.03787        3.62427       -2.65700
C          4.66954        4.03998       -0.80360
C          5.29183        2.60061       -2.77849
C          5.32750       -1.78673        1.46564
C          3.80691       -3.04328       -0.07710
C          5.82793       -1.94245       -1.00139
H          3.43324        4.40853       -3.30207
H          2.56542        2.87490       -3.29168
H          2.26952        4.07998       -2.03431
H          5.48104        3.64485       -0.19722
H          5.03539        4.92832       -1.31788
H          3.86991        4.34520       -0.12909
H          5.61639        3.45714       -3.36878
H          6.16009        2.22061       -2.24580
H          4.95410        1.82407       -3.46401
H          5.89726       -2.69645        1.65345
H          5.99507       -0.93866        1.59827
H          4.54631       -1.71518        2.22216
H          3.09000       -3.10918        0.74013
H          3.25459       -3.02012       -1.01619
H          4.39660       -3.95949       -0.05846
H          6.55723       -1.14015       -0.92118
H          5.40661       -1.91144       -2.00564
H          6.36122       -2.88568       -0.88569
H          5.85931        1.51489        1.06949
H          7.28847        0.54836        0.62863
H          7.11134        2.18730       -0.00362
