105
-153.06507687
Cl        -0.03121        1.76048        3.13787
Pd        -0.49790        1.24703        0.99397
P         -1.09823        0.51539       -1.15303
N         -0.68513       -0.98251       -1.98082
C          0.21119       -1.99247       -1.63267
C          0.32213       -2.49471       -0.31188
C          1.26354       -3.50866       -0.03803
C          1.36269       -4.05144        1.36825
C          2.16568       -5.35514        1.49753
C          3.44561       -5.29531        0.65921
C          3.10921       -5.08102       -0.82377
C          2.06753       -4.01683       -1.06214
C          1.90006       -3.54479       -2.35759
C          0.98793       -2.56267       -2.64031
H          0.88261       -2.19478       -3.64606
H          2.50930       -3.95532       -3.14502
H          4.01570       -4.82051       -1.38522
H          4.07342       -4.46809        1.01378
H          2.39961       -5.56774        2.55028
H          1.81596       -3.28061        2.00207
C         -0.66106       -2.12043        0.73453
C         -0.20168       -1.55106        1.95505
C         -1.10214       -1.43291        3.01782
C         -2.40461       -1.83696        2.88703
C         -2.87557       -2.38699        1.70116
C         -4.31364       -2.84630        1.66052
C         -4.65849       -3.75164        0.46785
C         -3.99922       -3.24281       -0.81624
C         -2.47226       -3.18508       -0.65928
C         -2.00728       -2.52126        0.61450
H         -2.05595       -4.19875       -0.69465
H         -4.37910       -2.24003       -1.04778
H         -5.74742       -3.83074        0.33980
H         -4.96184       -1.96322        1.65300
H         -3.08378       -1.72946        3.71586
H         -0.76317       -0.98927        3.93748
N          1.09975       -1.04841        2.10423
P          1.60722        0.19076        0.95599
C          2.63320       -0.35514       -0.39644
C          2.45203        0.21981       -1.62925
C          3.27780       -0.13820       -2.67899
C          4.29938       -1.05979       -2.48918
C          4.47312       -1.61744       -1.22883
C          3.64458       -1.25890       -0.18059
H          3.77661       -1.68091        0.80302
H          5.25751       -2.33846       -1.07456
C          5.16154       -1.47943       -3.62796
H          3.12846        0.29265       -3.65414
H          1.65744        0.93366       -1.76456
C          2.50076        1.53743        1.73963
C          3.25369        1.30949        2.86607
C          3.94083        2.35609        3.45403
C          3.88567        3.63249        2.90992
C          3.12072        3.84031        1.77007
C          2.43491        2.79295        1.18242
H          1.84295        2.95061        0.29397
H          3.06189        4.82873        1.34738
C          4.59837        4.76675        3.56028
H          4.52300        2.18737        4.34382
H          3.30549        0.31574        3.28041
H          1.28782       -0.63575        3.00869
H         -0.94871       -0.88178       -2.95291
C         -0.58180        1.90395       -2.17797
C         -0.80134        3.19132       -1.74975
C         -0.38386        4.26058       -2.51845
C          0.26326        4.04940       -3.72776
C          0.46203        2.74448       -4.15675
C          0.04077        1.67809       -3.38387
H          0.21484        0.66788       -3.71360
H          0.95163        2.56851       -5.09939
C          0.69677        5.19988       -4.56798
H         -0.55953        5.26835       -2.18272
H         -1.30679        3.35442       -0.81295
C         -2.89376        0.54301       -1.11276
C         -3.55535        0.81241       -2.28746
C         -4.93869        0.82969       -2.31155
C         -5.66770        0.57564       -1.15802
C         -4.98134        0.31524        0.01946
C         -3.59937        0.28429        0.03714
H         -3.06579        0.07134        0.94917
H         -5.53802        0.14740        0.92528
C         -7.15576        0.62274       -1.17091
H         -5.46026        1.04681       -3.22799
H         -2.98613        1.01185       -3.18208
Cl        -2.25569        2.65588        1.03361
H          2.75342       -6.02131       -1.26160
H          1.54943       -6.19701        1.15775
H          4.04769       -6.20436        0.79875
H          0.34875       -4.19613        1.76212
H         -4.28139       -3.86873       -1.67468
H         -2.03917       -2.66017       -1.51676
H         -4.54187       -3.36286        2.60172
H         -4.31169       -4.77250        0.67223
H          6.15668       -1.76510       -3.28425
H          4.72649       -2.33436       -4.14746
H          5.28028       -0.67097       -4.35072
H          3.94713        5.27456        4.27296
H          5.48184        4.42081        4.09866
H          4.92678        5.50001        2.82231
H         -0.09824        5.50175       -5.25118
H          0.95625        6.06169       -3.95151
H          1.57392        4.94385       -5.16394
H         -7.57722       -0.09028       -0.46082
H         -7.51357        1.61750       -0.90208
H         -7.54985        0.37831       -2.15833
