171
-217.84282782
P         -1.63593        0.40714       -0.43136
P          1.57240       -0.38546       -0.40140
C         -0.91989        1.38444       -1.75818
C          0.89462       -1.31419       -1.77604
C         -0.09001        0.79370       -2.70494
C          0.55364        1.61775       -3.64887
C          0.30840        2.98051       -3.63821
C         -0.54878        3.54146       -2.71591
C         -1.15385        2.73827       -1.76965
C          1.13421       -2.66521       -1.83316
C          0.58346       -3.42442       -2.84693
C         -0.22583       -2.82272       -3.78728
C         -0.48024       -1.46162       -3.74488
C          0.10971       -0.68173       -2.73236
Cl         1.51004        0.41554        2.80208
Cl        -1.63684       -0.43696        2.77089
C         -1.34497       -0.83812       -4.78348
C          1.49847        1.05888       -4.65505
H         -0.73890        4.60228       -2.72661
H         -1.81456        3.17166       -1.03676
H          1.75550       -3.12716       -1.08266
H          0.78172       -4.48250       -2.89914
H          0.80016        3.60451       -4.36543
H         -0.66819       -3.41314       -4.57184
C         -3.91813       -3.31522       -1.61136
C         -2.88187       -3.42004       -0.69082
C         -2.16875       -2.26895       -0.38486
C         -2.49792       -1.06862       -0.96365
C         -3.53107       -0.97846       -1.86353
C         -4.26651       -2.10709       -2.20591
H         -4.47545       -4.19648       -1.86324
H         -1.35693       -2.30383        0.32125
H         -3.77622       -0.01713       -2.28355
C         -4.24518        2.82076        2.38830
C         -4.80713        1.74155        1.71713
C         -4.00160        1.03402        0.83338
C         -2.69626        1.40614        0.62868
C         -2.15845        2.47523        1.30186
C         -2.92131        3.20152        2.20583
H         -4.85701        3.36440        3.08315
H         -4.37879        0.17074        0.31472
H         -1.12512        2.72967        1.13745
C          4.24206       -2.93207        2.24299
C          2.87788       -3.20128        2.21358
C          2.08155       -2.43760        1.37077
C          2.62877       -1.43386        0.61108
C          3.97539       -1.17589        0.65976
C          4.81358       -1.92494        1.47332
H          4.87239       -3.51279        2.88834
H          1.01928       -2.60935        1.32777
H          4.37606       -0.36946        0.07088
C          3.97380        3.27716       -1.51474
C          2.96988        3.39618       -0.56085
C          2.22403        2.26468       -0.26102
C          2.47631        1.07563       -0.89722
C          3.46904        0.97241       -1.84002
C          4.24437        2.07928       -2.16608
H          4.58009        4.13230       -1.74665
H          1.45599        2.30334        0.49260
H          3.64317        0.01546       -2.30209
Pd        -0.04710        0.01575        1.23643
C         -3.55726       -5.84035       -0.27733
C         -2.50620       -4.74520       -0.01171
C         -2.40564       -4.53529        1.51274
C         -1.15086       -5.21902       -0.55969
H         -3.61561       -6.08293       -1.33810
H         -3.30177       -6.75758        0.25320
H         -4.54409       -5.52467        0.06095
H         -2.17889       -5.47218        2.02124
H         -1.62198       -3.82438        1.76956
H         -3.34543       -4.15364        1.91102
H         -1.21167       -5.39338       -1.63358
H         -0.37923       -4.47060       -0.38614
H         -0.83686       -6.14760       -0.08337
C         -4.96661       -1.42764       -4.52238
C         -5.45553       -1.97591       -3.17049
C         -6.49062       -1.01007       -2.56568
C         -6.14384       -3.33230       -3.41907
H         -4.24764       -2.11004       -4.97393
H         -5.79726       -1.30879       -5.21792
H         -4.48794       -0.45606       -4.40698
H         -6.84333       -1.38060       -1.60352
H         -6.06385       -0.01985       -2.41036
H         -7.35405       -0.90170       -3.22181
H         -6.53667       -3.74944       -2.49199
H         -6.98012       -3.22017       -4.10908
H         -5.45001       -4.05005       -3.85642
C         -7.19201        2.53023        1.73644
C         -6.25923        1.33428        2.00380
C         -6.37692        0.89928        3.47563
C         -6.70629        0.16243        1.10867
H         -7.09512        2.87026        0.70551
H         -8.23355        2.25706        1.90508
H         -6.96001        3.37042        2.38962
H         -7.39350        0.58421        3.71024
H         -5.70701        0.06515        3.68366
H         -6.11475        1.71374        4.14998
H         -7.74362       -0.10518        1.30924
H         -6.63115        0.43028        0.05546
H         -6.09795       -0.72431        1.28601
C         -2.06871        5.53821        1.95644
C         -2.28776        4.38505        2.95049
C         -0.93567        3.95306        3.55373
C         -3.18782        4.88184        4.09836
H         -1.59103        6.38907        2.44184
H         -1.43706        5.22405        1.12711
H         -3.01844        5.87391        1.54040
H         -1.06404        3.09038        4.20711
H         -0.21984        3.68140        2.77998
H         -0.49440        4.75895        4.13974
H         -2.70098        5.68512        4.65128
H         -4.13201        5.27251        3.71985
H         -3.40278        4.07691        4.80103
C          3.24748       -4.98432        3.99476
C          2.21805       -4.26459        3.10297
C          1.52323       -5.31147        2.21466
C          1.17620       -3.58206        4.01071
H          2.76052       -5.73209        4.62063
H          3.99800       -5.49651        3.39299
H          3.75352       -4.28077        4.65558
H          0.74593       -4.85333        1.60644
H          2.23908       -5.78494        1.54303
H          1.05776       -6.09041        2.81831
H          0.69965       -4.30535        4.67195
H          1.64670       -2.81682        4.62754
H          0.39388       -3.10001        3.42581
C          6.89755       -1.74971        0.09037
C          6.31177       -1.59166        1.50610
C          7.08316       -2.52089        2.46240
C          6.49445       -0.13764        1.98123
H          6.41497       -1.07477       -0.61545
H          7.96525       -1.53120        0.08291
H          6.75813       -2.76785       -0.27246
H          6.98968       -3.56292        2.15707
H          8.14458       -2.27320        2.46944
H          6.71588       -2.42468        3.48395
H          6.01151        0.56498        1.30292
H          6.05845        0.00096        2.97032
H          7.55059        0.12545        2.03666
C          2.84812        4.46818        1.70130
C          2.67927        4.70365        0.18814
C          1.23562        5.14272       -0.11039
C          3.63361        5.83428       -0.24045
H          2.65237        5.38126        2.26313
H          2.16425        3.70178        2.06315
H          3.86263        4.14159        1.92857
H          0.52443        4.37131        0.18012
H          0.98389        6.05541        0.42937
H          1.10543        5.33271       -1.17523
H          3.41197        6.75311        0.30237
H          4.67093        5.57117       -0.03423
H          3.53524        6.04834       -1.30455
C          5.28369        3.07753       -4.22995
C          5.42265        1.99101       -3.14661
C          5.48341        0.61611       -3.84106
C          6.73356        2.20257       -2.36724
H          5.30968        4.07714       -3.79835
H          6.09524        3.00989       -4.95430
H          4.34310        2.97061       -4.76877
H          5.64190       -0.18356       -3.11790
H          4.56340        0.41005       -4.38701
H          6.30662        0.57956       -4.55444
H          6.75425        3.18204       -1.89050
H          6.84349        1.44960       -1.58694
H          7.59714        2.13297       -3.02842
H         -0.74829       -0.46677       -5.61726
H          2.42426        1.63424       -4.67332
H         -1.91061       -0.00041       -4.37289
H         -2.05879       -1.55871       -5.18313
H          1.06685        1.09021       -5.65639
H          1.75953        0.02397       -4.43041
