87
-129.18840253
P         -1.58518       -0.33207       -0.30676
P          1.66252        0.39037        0.00315
C         -1.26984        0.93360       -1.54553
C          1.50681       -0.69787       -1.42826
C         -0.23183        0.78425       -2.45840
C          0.01165        1.81820       -3.38405
C         -0.79700        2.94233       -3.37037
C         -1.82599        3.06774       -2.46163
C         -2.05737        2.05901       -1.54761
C          2.27110       -1.84008       -1.42886
C          2.15290       -2.76106       -2.45072
C          1.25315       -2.53618       -3.46956
C          0.46693       -1.39704       -3.48828
C          0.60114       -0.44813       -2.45601
Cl         1.15114        0.44374        3.21680
Cl        -1.49319       -1.40704        2.71835
H         -2.44235        3.95176       -2.45895
H         -2.85748        2.15066       -0.83208
H          2.96449       -2.01630       -0.62355
H          2.75359       -3.65583       -2.44514
H         -0.60714        3.72984       -4.07981
H          1.14744       -3.25657       -4.26294
C         -1.86636       -4.45705       -2.18458
C         -1.00913       -4.25675       -1.11125
C         -0.95882       -2.99582       -0.52992
C         -1.72125       -1.96604       -1.03005
C         -2.56231       -2.16938       -2.09868
C         -2.63946       -3.42336       -2.67604
H         -1.92253       -5.43350       -2.63470
C         -0.18208       -5.36919       -0.57050
H         -0.31295       -2.82108        0.31391
H         -3.14349       -1.34515       -2.48168
H         -3.29723       -3.59109       -3.51306
C         -5.30535        0.74239        2.09355
C         -5.31787       -0.36690        1.27111
C         -4.19374       -0.69355        0.53647
C         -3.06762        0.08992        0.62895
C         -3.05175        1.19336        1.45095
C         -4.17488        1.54182        2.19076
H         -6.17658        0.99313        2.67438
H         -6.20071       -0.98159        1.20642
H         -4.18594       -1.56282       -0.10025
H         -2.15755        1.78901        1.52800
C         -4.14001        2.71721        3.10273
C          5.44582       -0.58583        2.34489
C          5.36595        0.59024        1.62576
C          4.21873        0.88682        0.91426
C          3.16105        0.00777        0.92700
C          3.23843       -1.16396        1.64449
C          4.38631       -1.48218        2.36003
H          6.33439       -0.81456        2.90831
H          6.19468        1.27922        1.62299
H          4.14009        1.80524        0.35623
H          2.39431       -1.83353        1.66656
C          4.44984       -2.73190        3.16536
C          1.36243        4.81486       -0.98378
C          2.26252        4.02001       -1.66642
C          2.36262        2.67444       -1.36461
C          1.56685        2.14000       -0.37889
C          0.68386        2.93298        0.31710
C          0.55558        4.28212        0.01255
H          1.27953        5.86158       -1.22179
H          2.88100        4.44562       -2.43952
H          3.04584        2.03481       -1.90090
H          0.08894        2.50467        1.10533
C         -0.41094        5.13067        0.76091
Pd        -0.04838       -0.24662        1.45170
C          1.12065        1.73126       -4.37434
C         -0.50516       -1.20533       -4.60048
H          1.68019        2.66689       -4.41408
H          1.82467        0.93880       -4.11821
H          0.73417        1.52952       -5.37408
H         -1.24965       -0.44728       -4.35500
H          0.00450       -0.89564       -5.51361
H         -1.03968       -2.13221       -4.81308
H          0.76002       -4.99557       -0.16621
H         -0.70923       -5.88986        0.23008
H          0.05691       -6.09677       -1.34744
H         -3.52898        3.51903        2.68545
H         -5.14096        3.11656        3.27205
H         -3.71807        2.44191        4.07029
H          5.47904       -3.07302        3.28561
H          4.02855       -2.57191        4.15879
H          3.88757       -3.53545        2.68737
H         -0.00182        5.42197        1.72927
H         -0.65085        6.04002        0.20814
H         -1.34474        4.59437        0.93716
