45
-71.81608099
C          0.37322        0.65010        2.48198
P          0.96736        0.63992        0.75647
P         -1.61048        0.26291       -1.06105
C         -2.35906       -0.09283       -2.68508
Cl         1.68319       -2.37136        0.63064
H         -0.71225        0.68887        2.49737
H         -3.18503        0.58702       -2.87326
Cl        -1.01366       -2.85531       -1.38882
C          0.30063        2.03805       -0.17074
C         -0.80417        1.87566       -0.97884
C         -1.31818        2.95078       -1.67412
C         -0.71234        4.19054       -1.56844
C          0.39919        4.35130       -0.76394
C          0.90653        3.27255       -0.06118
H         -2.19312        2.81686       -2.28931
H         -1.11040        5.03142       -2.11220
H          0.87076        5.31669       -0.68149
H          1.77262        3.38254        0.57177
Pd         0.03550       -1.18436       -0.32648
H         -2.73157       -1.11309       -2.70221
H          0.76434        1.51828        3.00467
H         -1.61514        0.02393       -3.46795
C         -4.50237       -0.23372        2.40740
C         -4.00387        1.01861        2.10463
C         -3.13350        1.17520        1.04106
C         -2.77507        0.08077        0.28850
C         -3.25916       -1.17042        0.59250
C         -4.13016       -1.33029        1.65439
H         -5.18019       -0.35629        3.23635
H         -4.29044        1.87242        2.69637
H         -2.72872        2.14398        0.79649
H         -2.92596       -2.01618        0.01203
H         -4.51081       -2.30884        1.89671
C          5.49163        0.46889        0.31195
C          4.68386        0.64237       -0.79438
C          3.30976        0.69827       -0.64157
C          2.75539        0.58407        0.61310
C          3.55617        0.40672        1.71826
C          4.93011        0.35018        1.56799
H          6.56201        0.42255        0.19457
H          5.12106        0.73094       -1.77531
H          2.66389        0.82911       -1.49594
H          3.10693        0.30631        2.69281
H          5.56068        0.20937        2.43049
H          0.69887       -0.25180        2.99241
