111
-148.54969770
P         -1.33335        2.59988        1.30415
P         -0.29716       -0.30130        0.58356
C         -0.80934        1.47371        2.63191
C         -0.42505        0.18637        2.31692
C         -0.17401        4.02483        1.12455
C          0.41304        4.05894       -0.27045
C         -0.74469        1.90538        3.94144
H         -0.98861        2.92724        4.17802
C         -0.32947        1.03708        4.93608
H         -0.28378        1.37441        5.95873
C          0.03660       -0.25674        4.61921
H          0.36692       -0.93047        5.39264
C          0.00110       -0.67933        3.30270
H          0.32387       -1.67252        3.03231
Pd        -1.62281        1.22577       -0.52993
Cl        -2.70545        2.91836       -1.52734
Cl        -1.77345       -0.21371       -2.24885
C         -1.06140        5.24051        1.46646
C         -2.93830        3.49245        1.56346
H          1.09074        4.90602       -0.40060
H          0.97104        3.14611       -0.49064
H         -0.37818        4.14822       -1.01746
H         -0.73240        6.11046        0.87944
H         -0.91770        5.52340        2.51974
H         -3.63734        3.07651        0.82486
C         -2.56877        4.94964        1.21458
C         -3.49841        3.31974        2.95916
H          0.61623        3.88613        1.87432
H         -3.19968        5.63862        1.79507
H         -2.80424        5.15005        0.15885
H         -2.85390        3.79735        3.69764
H         -4.48651        3.77647        3.05165
H         -3.58876        2.26388        3.22383
C         -0.95848       -4.74303       -0.19244
C         -1.73933       -4.07373        0.78397
C         -1.49554       -2.72888        1.01224
C         -0.55911       -2.04550        0.28038
C          0.12468       -2.66451       -0.73294
C         -0.08477       -4.00121       -1.02743
O         -1.02970       -6.15659       -0.31259
C         -2.81875       -4.79421        1.60708
H         -2.03394       -2.19261        1.77461
H          0.82916       -2.08349       -1.30104
C          0.63058       -4.61847       -2.23962
C          3.56974        1.46282       -1.06698
C          3.35385        1.41172        0.33386
C          2.19555        0.81242        0.79872
C          1.25146        0.32975       -0.06970
C          1.40869        0.47229       -1.42370
C          2.53823        1.06742       -1.95619
O          4.82261        1.89740       -1.57610
C          4.35601        1.99528        1.34227
H          2.00642        0.72746        1.85419
H          0.60167        0.15356       -2.05961
C          2.61581        1.29925       -3.47362
C         -3.92691       -3.80830        2.04093
C         -3.50002       -5.89842        0.77810
C         -2.17924       -5.39663        2.86716
C          0.84889       -3.55301       -3.33860
C          1.99943       -5.16187       -1.80383
C         -0.21314       -5.74253       -2.86782
C         -0.07201       -6.85493        0.47298
H         -4.32303       -3.26796        1.18154
H         -4.75373       -4.33900        2.51248
H         -3.55945       -3.08238        2.76480
H         -2.79641       -6.68168        0.50688
H         -4.31167       -6.36390        1.33665
H         -3.91324       -5.48707       -0.14222
H         -2.92441       -5.90525        3.47829
H         -1.40672       -6.11746        2.61066
H         -1.71791       -4.61834        3.47471
H          1.22935       -4.00977       -4.25191
H         -0.08618       -3.04814       -3.58009
H          1.57415       -2.80171       -3.03102
H          2.61598       -4.36464       -1.38917
H          1.89455       -5.92955       -1.04092
H          2.53334       -5.59696       -2.64830
H          0.26165       -6.13351       -3.76735
H         -0.34530       -6.57255       -2.17834
H         -1.20171       -5.37329       -3.13877
H          0.53333       -6.15328        1.04825
H         -0.58471       -7.53534        1.15273
H          0.57387       -7.44583       -0.17613
C          5.75889        0.84956       -1.79221
C          3.64323        2.41623        2.64780
C          5.41151        0.93340        1.68460
C          5.03346        3.25562        0.77432
C          3.40651        2.58029       -3.79539
C          3.27569        0.08503       -4.14366
C          1.20113        1.48254       -4.07091
H          2.81006        3.08532        2.43663
H          3.26317        1.55534        3.19600
H          4.33071        2.93950        3.31197
H          5.96059        0.62346        0.79906
H          6.13005        1.31634        2.40886
H          4.94174        0.04719        2.11068
H          5.69763        3.70895        1.50972
H          5.62736        3.02327       -0.10637
H          4.28713        3.99632        0.48871
H          2.96628        3.43935       -3.29005
H          4.44184        2.49889       -3.47385
H          3.40875        2.78103       -4.86642
H          3.34067        0.22204       -5.22275
H          4.28142       -0.07768       -3.76420
H          2.69962       -0.81968       -3.95310
H          0.62400        0.55986       -4.03254
H          1.25846        1.77933       -5.11777
H          0.64961        2.25434       -3.53450
H          5.33398       -0.10916       -1.49214
H          6.03138        0.81364       -2.84674
H          6.66271        1.04433       -1.21513
