171
-217.84837972
P         -1.58765        0.44256       -0.30960
P          1.60551       -0.41736       -0.32935
C         -0.86682        1.39357       -1.65257
C          0.87049       -1.33312       -1.69074
C         -0.09032        0.77884       -2.62798
C          0.52773        1.58065       -3.60690
C          0.31478        2.94900       -3.59498
C         -0.48162        3.53607       -2.63486
C         -1.06338        2.75293       -1.65726
C          1.06835       -2.69199       -1.72817
C          0.47609       -3.45493       -2.71527
C         -0.33414       -2.84884       -3.65140
C         -0.54910       -1.48099       -3.63085
C          0.08160       -0.69886       -2.64388
Cl         1.59021        0.14150        2.91615
Cl        -1.57203       -0.31973        2.88072
C         -1.43286       -0.86645       -4.65947
C          1.39036        0.98387       -4.66350
H         -0.64738        4.60090       -2.64496
H         -1.67641        3.20398       -0.89365
H          1.68988       -3.15964       -0.98170
H          0.64322       -4.51904       -2.75024
H          0.78222        3.55660       -4.35147
H         -0.81197       -3.44087       -4.41373
C         -3.88281       -3.25949       -1.52081
C         -2.90364       -3.36676       -0.54026
C         -2.18864       -2.22313       -0.21294
C         -2.45175       -1.03172       -0.84122
C         -3.42038       -0.94090       -1.81004
C         -4.16147       -2.06115       -2.16796
H         -4.46227       -4.12551       -1.77928
H         -1.43048       -2.25697        0.55054
H         -3.60054        0.01541       -2.27105
C         -4.38155        3.01993        2.16862
C         -4.92137        2.04049        1.34324
C         -4.04327        1.27024        0.59435
C         -2.68934        1.48252        0.66219
C         -2.17236        2.45599        1.48091
C         -3.01206        3.23675        2.26530
H         -5.03847        3.63023        2.75921
H         -4.42057        0.48817       -0.04068
H         -1.10497        2.58870        1.51729
C          4.39664       -3.09562        2.03640
C          3.02654       -3.30052        2.14076
C          2.18995       -2.48425        1.39040
C          2.71169       -1.49023        0.59966
C          4.06752       -1.29073        0.52284
C          4.94211       -2.09805        1.23827
H          5.05886       -3.72705        2.59972
H          1.12113       -2.60375        1.43366
H          4.43778       -0.49208       -0.09429
C          3.84871        3.34325       -1.46485
C          2.88727        3.40906       -0.46364
C          2.19199        2.24735       -0.15829
C          2.45797        1.07748       -0.82528
C          3.41125        1.02742       -1.81229
C          4.13115        2.16770       -2.15065
H          4.40928        4.22496       -1.71179
H          1.44432        2.25162        0.61607
H          3.59339        0.08814       -2.30616
Pd         0.01395        0.00371        1.31930
C         -2.67799       -4.45056        1.71346
C         -2.59565       -4.68065        0.19157
C         -1.17908       -5.14455       -0.18774
C         -3.59445       -5.79175       -0.18447
H         -3.66704       -4.08952        1.99440
H         -2.48823       -5.37495        2.25862
H         -1.94832       -3.71435        2.04725
H         -0.90663       -6.05388        0.34764
H         -1.11794       -5.35064       -1.25576
H         -0.44032       -4.37952        0.04647
H         -3.37774       -6.70790        0.36483
H         -4.61613       -5.49622        0.05366
H         -3.54042       -6.02641       -1.24734
C         -6.64073       -2.23356       -2.44189
C         -5.31262       -1.98950       -3.18151
C         -5.11907       -3.06486       -4.26758
C         -5.38267       -0.61113       -3.86816
H         -6.78976       -1.48693       -1.66192
H         -7.48594       -2.17934       -3.12779
H         -6.65388       -3.21568       -1.97035
H         -4.16234       -2.93817       -4.77265
H         -5.14305       -4.06822       -3.84465
H         -5.90651       -3.00481       -5.01872
H         -6.18611       -0.58652       -4.60423
H         -5.57816        0.17984       -3.14466
H         -4.45246       -0.38169       -4.38643
C         -7.24295        2.71736        2.13937
C         -6.42834        1.76551        1.24303
C         -6.70694        0.31642        1.68512
C         -6.88359        1.95656       -0.21589
H         -7.08467        3.75697        1.85310
H         -8.30968        2.51044        2.05396
H         -6.96767        2.60067        3.18738
H         -7.77304        0.09381        1.64486
H         -6.19292       -0.39926        1.04434
H         -6.36539        0.15409        2.70717
H         -6.67103        2.96986       -0.55606
H         -6.37136        1.26535       -0.88398
H         -7.95495        1.78370       -0.31644
C         -0.92816        4.27592        3.29216
C         -2.46802        4.30254        3.22733
C         -3.01000        4.03766        4.64487
C         -2.91751        5.69312        2.74652
H         -0.55699        5.00902        4.00810
H         -0.56600        3.29595        3.60302
H         -0.49229        4.51559        2.32387
H         -4.09596        4.11333        4.67819
H         -2.73272        3.03832        4.97995
H         -2.60608        4.75680        5.35722
H         -4.00412        5.76972        2.72432
H         -2.53942        6.47507        3.40487
H         -2.54743        5.89015        1.74040
C          3.02786       -4.16030        4.49833
C          2.47994       -4.38764        3.07670
C          2.92136       -5.76795        2.55998
C          0.94051       -4.35519        3.14632
H          4.11384       -4.23881        4.52482
H          2.75436       -3.16909        4.85966
H          2.62513       -4.89642        5.19380
H          2.54844       -5.93756        1.54993
H          4.00749       -5.84974        2.53374
H          2.54039       -6.56433        3.19909
H          0.58411       -3.38313        3.48716
H          0.50131       -4.56342        2.17226
H          0.56736       -5.10741        3.84108
C          7.12555       -3.19634        0.67377
C          6.46371       -1.90252        1.18209
C          6.98354       -1.57035        2.59265
C          6.85345       -0.75048        0.23427
H          8.20696       -3.07989        0.60416
H          6.92312       -4.03370        1.34050
H          6.74969       -3.45744       -0.31537
H          6.50589       -0.66854        2.97521
H          6.77690       -2.38000        3.29155
H          8.06066       -1.40452        2.58290
H          6.42318        0.19399        0.56704
H          7.93565       -0.62556        0.20091
H          6.51285       -0.94712       -0.78211
C          3.55861        5.82959       -0.04566
C          2.57516        4.69812        0.30970
C          2.67799        4.42556        1.82331
C          1.14976        5.15859       -0.03921
H          3.34139        6.72642        0.53447
H          4.58612        5.53642        0.16916
H          3.48760        6.09638       -1.09990
H          3.67371        4.06636        2.08216
H          2.48622        5.33224        2.39681
H          1.95914        3.67335        2.14467
H          0.87495        6.04913        0.52575
H          1.07379        5.39528       -1.09987
H          0.42146        4.37959        0.18118
C          5.35444        0.77913       -3.89924
C          5.25585        2.14709       -3.19592
C          6.59610        2.43087       -2.49306
C          4.99430        3.22748       -4.26251
H          5.58930       -0.01255       -3.18815
H          4.42120        0.52607       -4.40086
H          6.14252        0.78750       -4.65208
H          6.59044        3.40902       -2.01330
H          6.79388        1.68366       -1.72498
H          7.42196        2.41132       -3.20394
H          4.03007        3.07230       -4.74442
H          4.99202        4.22553       -3.82640
H          5.76341        3.20607       -5.03443
H         -1.76919        0.12585       -4.35593
H          0.84454        0.88513       -5.60268
H         -2.31968       -1.47894       -4.82361
H         -0.91308       -0.77115       -5.61367
H          1.74901       -0.00490       -4.37425
H          2.26340        1.60902       -4.85087
