171
-217.84510878
P         -1.63436        0.40909       -0.26145
P          1.61527       -0.37225       -0.39854
C         -0.95615        1.39218       -1.60345
C          0.84498       -1.30551       -1.72116
C         -0.17279        0.80909       -2.59354
C          0.42903        1.64259       -3.55545
C          0.19104        3.00650       -3.51754
C         -0.61188        3.56128       -2.54417
C         -1.17609        2.74829       -1.58147
C          1.06459       -2.65938       -1.78196
C          0.45891       -3.41524       -2.76662
C         -0.37869       -2.80573       -3.67693
C         -0.61240       -1.44121       -3.63163
C          0.02459       -0.66632       -2.64322
Cl         1.87658        0.63175        2.58650
Cl        -1.33584       -0.06460        3.02549
C         -1.51607       -0.81927       -4.63811
C          1.30606        1.08487       -4.62029
H         -0.79256        4.62371       -2.52854
H         -1.79288        3.17560       -0.80781
H          1.71411       -3.12537       -1.05822
H          0.63907       -4.47637       -2.82159
H          0.64577        3.63666       -4.26325
H         -0.86256       -3.39267       -4.43937
C         -3.80416       -3.37315       -1.45298
C         -2.81459       -3.44667       -0.48012
C         -2.13046       -2.28006       -0.16416
C         -2.44438       -1.09808       -0.78760
C         -3.43138       -1.03941       -1.74074
C         -4.13558       -2.18511       -2.09275
H         -4.34758       -4.26106       -1.71531
H         -1.35393       -2.28529        0.58110
H         -3.65476       -0.08842       -2.19385
C         -4.50220        2.81868        2.29793
C         -3.15863        3.17146        2.29209
C         -2.29779        2.43669        1.48665
C         -2.77047        1.39147        0.73182
C         -4.10154        1.05565        0.75355
C         -4.99968        1.76966        1.53575
H         -5.17872        3.36692        2.92750
H         -1.24446        2.65717        1.46282
H         -4.43265        0.21915        0.16502
C          4.22217       -2.91059        2.32209
C          2.85156       -3.14061        2.29837
C          2.08150       -2.39291        1.41708
C          2.65921       -1.43752        0.61712
C          4.01365       -1.21872        0.66166
C          4.82545       -1.95233        1.51623
H          4.83274       -3.48269        2.99348
H          1.01491       -2.53592        1.37706
H          4.44049       -0.45253        0.03921
C          4.02741        3.16014       -1.86770
C          4.33968        1.89467       -2.35137
C          3.56344        0.82699       -1.91719
C          2.55144        1.02538       -1.01006
C          2.26511        2.27925       -0.53196
C          2.99348        3.37948       -0.96584
H          4.60950        4.00339       -2.18823
H          3.75524       -0.17018       -2.27739
H          1.46952        2.38937        0.18439
Pd         0.08300        0.13645        1.30386
C         -2.31536       -4.52834        1.73898
C         -2.44830       -4.76269        0.22068
C         -1.11340       -5.26865       -0.34805
C         -3.52423       -5.84391       -0.00147
H         -2.09883       -5.46092        2.25977
H         -1.51262       -3.83056        1.96976
H         -3.23983       -4.12081        2.14741
H         -1.20589       -5.47851       -1.41332
H         -0.33149       -4.52102       -0.22380
H         -0.79447       -6.18385        0.15036
H         -4.50152       -5.49573        0.33263
H         -3.59633       -6.12127       -1.05273
H         -3.28380       -6.74845        0.55716
C         -5.01866       -3.18393       -4.22516
C         -5.29051       -2.16251       -3.10452
C         -5.46208       -0.76941       -3.74106
C         -6.59864       -2.53066       -2.38016
H         -5.81192       -3.16196       -4.97222
H         -4.07723       -2.96820       -4.72817
H         -4.96166       -4.19860       -3.83328
H         -6.27445       -0.77385       -4.46766
H         -5.70071       -0.01974       -2.98693
H         -4.55629       -0.45929       -4.26063
H         -7.44465       -2.50955       -3.06690
H         -6.54341       -3.52936       -1.94835
H         -6.80234       -1.82880       -1.57212
C         -2.89094        3.91021        4.66782
C         -2.65930        4.30512        3.19823
C         -3.42960        5.59883        2.87576
C         -1.15538        4.57221        2.99527
H         -2.52922        4.68557        5.34284
H         -3.94954        3.75467        4.87272
H         -2.36573        2.98448        4.90257
H         -3.29884        5.87311        1.82907
H         -4.49673        5.48339        3.06108
H         -3.07394        6.42697        3.48857
H         -0.81661        5.38833        3.63321
H         -0.56203        3.69253        3.24425
H         -0.94780        4.85122        1.96292
C         -7.32889        2.64108        1.19806
C         -6.49129        1.41218        1.59741
C         -6.84797        0.98185        3.03162
C         -6.83754        0.25597        0.63804
H         -7.16381        3.47347        1.88101
H         -7.06740        2.97465        0.19398
H         -8.39344        2.40771        1.20968
H         -6.66469        1.78663        3.74264
H         -7.89886        0.70274        3.10587
H         -6.24776        0.12445        3.33562
H         -6.29236       -0.65030        0.90137
H         -7.90148        0.02321        0.67990
H         -6.59685        0.51802       -0.39209
C          3.16341       -4.81096        4.19737
C          2.16194       -4.14084        3.23727
C          1.48048       -5.23568        2.39966
C          1.10663       -3.39546        4.07804
H          3.91710       -5.37507        3.64833
H          3.66760       -4.06986        4.81733
H          2.65316       -5.50630        4.86382
H          2.20988       -5.76270        1.78487
H          0.98326       -5.96579        3.03804
H          0.73226       -4.80719        1.73679
H          0.34127       -2.94364        3.44871
H          0.60932       -4.07292        4.77172
H          1.57084       -2.59764        4.65723
C          7.03869       -2.45512        2.67264
C          6.33615       -1.67817        1.54240
C          6.58118       -0.17293        1.76731
C          6.94544       -2.10785        0.19681
H          6.94363       -3.53127        2.52971
H          8.10301       -2.22153        2.69836
H          6.61902       -2.19579        3.64448
H          6.11044        0.15841        2.69263
H          7.64737        0.04271        1.83424
H          6.17463        0.42533        0.95308
H          8.01754       -1.91349        0.17197
H          6.78974       -3.17286        0.02567
H          6.48640       -1.56798       -0.62960
C          6.33574        2.92473       -3.55318
C          5.51869        1.64208       -3.30415
C          4.99060        1.12885       -4.65480
C          6.45404        0.58656       -2.68479
H          6.72998        3.32514       -2.61929
H          7.18208        2.72235       -4.20952
H          5.72723        3.69253       -4.03056
H          4.40175        0.22090       -4.52894
H          4.36118        1.87892       -5.13203
H          5.81280        0.90256       -5.33351
H          5.94654       -0.37011       -2.57059
H          7.32935        0.42308       -3.31322
H          6.79922        0.90661       -1.70184
C          3.92667        5.29190        0.35336
C          2.71124        4.79730       -0.45084
C          1.47161        4.82982        0.46390
C          2.45855        5.73773       -1.64398
H          4.12729        4.62725        1.19350
H          4.82201        5.32686       -0.26640
H          3.75287        6.29288        0.74784
H          0.58847        4.47016       -0.06310
H          1.62132        4.21300        1.34980
H          1.26596        5.84559        0.80117
H          1.62482        5.37922       -2.24639
H          2.21950        6.74477       -1.30264
H          3.33269        5.80537       -2.29021
H         -2.39098       -1.44505       -4.81336
H          2.12719        1.76775       -4.83924
H         -1.00497       -0.68835       -5.59275
H         -1.87072        0.15758       -4.30655
H          0.74827        0.92799       -5.54427
H          1.73979        0.13049       -4.31848
