105
-153.07149673
Cl         0.42103        3.13014        2.44322
Pd        -0.17169        1.81734        0.71233
P         -0.74663        0.48655       -1.16428
N          0.38211       -0.79108       -1.59813
C          0.52739       -2.16052       -1.34029
C         -0.01139       -2.82948       -0.20903
C          0.34818       -4.17039        0.04349
C         -0.06504       -4.81422        1.34645
C          0.82444       -6.00083        1.74349
C          0.94848       -6.98371        0.57542
C          1.56740       -6.30348       -0.65766
C          1.15181       -4.86542       -0.86373
C          1.63810       -4.20119       -1.98258
C          1.35222       -2.87940       -2.20404
H          1.76645       -2.37153       -3.05792
H          2.27260       -4.73539       -2.66963
H          2.66099       -6.33570       -0.58124
H          1.53306       -7.86649        0.87043
H          1.82114       -5.63194        2.01620
H         -0.06080       -4.05646        2.14007
C         -0.76155       -2.07947        0.82600
C         -0.04176       -1.15638        1.62147
C         -0.70916       -0.47677        2.63936
C         -2.03713       -0.71517        2.88357
C         -2.75669       -1.64002        2.13388
C         -4.20197       -1.88529        2.50686
C         -4.95718       -2.89617        1.62066
C         -4.02120       -3.97542        1.06477
C         -2.88860       -3.31693        0.26745
C         -2.11795       -2.32503        1.09724
H         -2.21800       -4.06702       -0.16580
H         -4.57035       -4.70195        0.44939
H         -5.42747       -2.36762        0.78273
H         -4.72654       -0.92148        2.50836
H         -2.53933       -0.18342        3.67389
H         -0.16626        0.24535        3.22286
N          1.31265       -0.93381        1.36068
P          1.86304        0.71769        1.09415
C          2.69552        0.86810       -0.48482
C          3.50499       -0.15032       -0.93160
C          4.00509       -0.11147       -2.22079
C          3.70779        0.95170       -3.06239
C          2.90868        1.97988       -2.58343
C          2.40610        1.93972       -1.29674
H          1.76898        2.73129       -0.93553
H          2.66315        2.80315       -3.23254
C          4.19732        0.96841       -4.46843
H          4.61899       -0.91703       -2.58618
H          3.71559       -0.98775       -0.28556
C          2.85799        1.34571        2.43733
C          2.83497        0.68514        3.64146
C          3.57775        1.16893        4.70377
C          4.34944        2.31459        4.56029
C          4.34995        2.97181        3.33665
C          3.60661        2.48633        2.27577
H          3.59945        2.99571        1.32515
H          4.93167        3.87033        3.22124
C          5.12537        2.85379        5.71128
H          3.55894        0.66065        5.65262
H          2.23697       -0.20661        3.74129
H          1.72081       -1.49278        0.62509
H          1.21222       -0.29516       -1.90113
C         -0.61820        1.68421       -2.49967
C         -1.03473        2.98360       -2.33694
C         -0.90721        3.88552       -3.37560
C         -0.36224        3.49132       -4.59007
C          0.02683        2.16822       -4.74801
C         -0.10183        1.26915       -3.70467
H          0.20451        0.24278       -3.82471
H          0.43455        1.84693       -5.69121
C         -0.23911        4.45736       -5.71645
H         -1.23268        4.90394       -3.24918
H         -1.46654        3.28378       -1.39738
C         -2.40973       -0.16569       -1.30701
C         -3.46375        0.27427       -0.54332
C         -4.73590       -0.21222       -0.77491
C         -4.96756       -1.13053       -1.79063
C         -3.89622       -1.54990       -2.56705
C         -2.62126       -1.06835       -2.32308
H         -1.78388       -1.39122       -2.92198
H         -4.06473       -2.26097       -3.35761
C         -6.33169       -1.67297       -2.04016
H         -5.56045        0.12977       -0.17311
H         -3.29370        1.02288        0.21008
Cl        -2.18811        2.80257        0.65254
H          1.32289       -6.87030       -1.56505
H          0.43725       -6.50251        2.64166
H         -0.04825       -7.36509        0.31974
H         -1.10305       -5.15433        1.26862
H         -3.59405       -4.54963        1.89623
H         -3.31425       -2.79055       -0.59065
H         -4.22633       -2.22824        3.54830
H         -5.78840       -3.35374        2.17510
H          3.47751        0.48914       -5.13351
H          4.35098        1.98981       -4.81945
H          5.14687        0.43961       -4.56176
H          6.00156        3.40762        5.37129
H          4.51150        3.52893        6.30896
H          5.47389        2.05041        6.36180
H         -0.08921        5.47350       -5.34897
H          0.60858        4.20916       -6.35676
H         -1.13958        4.45121       -6.33207
H         -6.62167       -1.53153       -3.08223
H         -6.36995       -2.74123       -1.82184
H         -7.07761       -1.17761       -1.41716
