105
-153.06521934
Cl         0.09445        2.78451        2.73550
Pd        -0.21654        1.75214        0.75761
P         -0.68032        0.51090       -1.20017
N          0.44200       -0.79091       -1.58662
C          0.50631       -2.17895       -1.38815
C         -0.02674       -2.85035       -0.25491
C          0.27026       -4.21528       -0.05354
C         -0.11809       -4.87328        1.25018
C          0.72666       -6.11293        1.57626
C          0.74361       -7.07026        0.38088
C          1.33787       -6.39076       -0.86475
C          0.99651       -4.92609       -1.01261
C          1.47638       -4.25615       -2.13092
C          1.25967       -2.91389       -2.30195
H          1.67231       -2.40257       -3.15456
H          2.05316       -4.80352       -2.85735
H          2.43023       -6.48676       -0.84584
H          1.29452       -7.98913        0.62626
H          1.75300       -5.80194        1.80816
H         -0.04075       -4.13868        2.06163
C         -0.70588       -2.09494        0.82595
C          0.07152       -1.20260        1.60538
C         -0.52190       -0.56082        2.69145
C         -1.83990       -0.78030        2.99824
C         -2.62303       -1.64952        2.24608
C         -4.05797       -1.86226        2.67492
C         -4.88745       -2.80626        1.78170
C         -4.01657       -3.89559        1.14596
C         -2.89513       -3.24629        0.32583
C         -2.05456       -2.31259        1.15561
H         -2.27209       -4.00125       -0.16588
H         -4.61750       -4.57764        0.52804
H         -5.36923       -2.22621        0.98527
H         -4.54711       -0.88223        2.74156
H         -2.28601       -0.27058        3.83533
H          0.06634        0.12988        3.26879
N          1.39031       -0.93722        1.23125
P          1.86910        0.74699        1.07091
C          2.71370        1.00280       -0.48702
C          2.38642        2.09438       -1.25611
C          2.89354        2.20696       -2.53672
C          3.71935        1.22160       -3.05858
C          4.06253        0.14246       -2.25559
C          3.56113        0.03345       -0.97093
H          3.80008       -0.82081       -0.35714
H          4.71675       -0.61816       -2.64649
C          4.25477        1.34023       -4.44282
H          2.62952        3.05254       -3.14874
H          1.71500        2.84345       -0.86694
C          2.79882        1.35943        2.46619
C          2.93729        0.55670        3.57221
C          3.63423        1.02045        4.67374
C          4.18780        2.29431        4.67181
C          4.04269        3.08514        3.53936
C          3.34589        2.61932        2.43880
H          3.22078        3.23372        1.56115
H          4.47632        4.07047        3.52621
C          4.95588        2.79199        5.84656
H          3.75059        0.39495        5.54217
H          2.50137       -0.42964        3.56409
H          1.67554       -1.36878        0.35918
H          1.29383       -0.31849       -1.86675
C         -0.52173        1.66391       -2.57178
C         -0.86600        2.98986       -2.46582
C         -0.69351        3.83853       -3.54190
C         -0.17381        3.36500       -4.73881
C          0.14458        2.01788       -4.83978
C         -0.02822        1.17284       -3.75808
H          0.23013        0.12877       -3.83169
H          0.53373        1.63547       -5.76788
C         -0.00076        4.27432       -5.90508
H         -0.96321        4.87750       -3.45854
H         -1.27612        3.35517       -1.54071
C         -2.35119       -0.12386       -1.30255
C         -3.37072        0.33387       -0.50273
C         -4.65682       -0.13677       -0.68685
C         -4.93579       -1.05822       -1.68784
C         -3.89912       -1.49182       -2.50296
C         -2.60975       -1.02726       -2.30671
H         -1.79892       -1.36353       -2.93389
H         -4.10603       -2.20102       -3.28605
C         -6.31741       -1.57368       -1.89426
H         -5.45550        0.22141       -0.06010
H         -3.16538        1.08697        0.23787
Cl        -2.05810        2.99418        0.42053
H          1.01591       -6.91677       -1.77253
H          0.35730       -6.61713        2.48051
H         -0.28276       -7.39345        0.16542
H         -1.17410       -5.16009        1.21104
H         -3.57662       -4.51645        1.93615
H         -3.33785       -2.67207       -0.49167
H         -4.04826       -2.25015        3.70070
H         -5.71325       -3.25482        2.35141
H          3.56176        1.88382       -5.08674
H          5.20647        1.87323       -4.44602
H          4.41678        0.35737       -4.88760
H          4.80040        3.86193        5.99190
H          4.64826        2.28612        6.76277
H          6.02482        2.62201        5.71086
H          0.83763        3.95957       -6.52815
H         -0.89757        4.28277       -6.52600
H          0.19431        5.29756       -5.58108
H         -6.99954       -1.20384       -1.12756
H         -6.70613       -1.26334       -2.86508
H         -6.33474       -2.66392       -1.85665
