111
-148.55081873
P         -2.49391        2.13474        0.95983
P          0.06065        0.33362        0.52057
C         -1.46178        1.68045        2.38070
C         -0.31554        0.94542        2.17208
C         -3.20336        3.83252        1.17620
C         -2.45713        4.87680        0.37519
C         -1.80926        2.06014        3.66182
H         -2.71862        2.61378        3.82705
C         -0.99786        1.71190        4.72800
H         -1.26888        2.00829        5.72818
C          0.15682        0.98413        4.51308
H          0.78714        0.71160        5.34349
C          0.49692        0.59495        3.22999
H          1.38360        0.00871        3.04489
Pd        -1.31273        1.50576       -0.93097
Cl        -2.53751        2.92523       -2.15235
Cl        -0.00716        0.75012       -2.60148
C         -4.67680        3.63233        0.77927
C         -4.05401        1.14690        0.81834
H         -2.87370        5.87414        0.53362
H         -1.39928        4.90325        0.64681
H         -2.51526        4.66511       -0.69228
H         -4.78100        3.82395       -0.29768
H         -5.31433        4.37907        1.27683
H         -4.10616        0.80857       -0.22524
C         -5.15593        2.18679        1.09827
C         -4.04034       -0.03329        1.76539
H         -3.13297        4.05903        2.24750
H         -5.44194        2.12224        2.15702
H         -6.06697        1.94153        0.53172
H         -3.92375        0.30011        2.79831
H         -4.96799       -0.60702        1.70340
H         -3.21022       -0.70748        1.54316
C         -1.18297       -4.03296        0.11950
C         -1.21542       -3.41272        1.39510
C         -0.82344       -2.08801        1.49067
C         -0.49168       -1.36662        0.37380
C         -0.57556       -1.93022       -0.87137
C         -0.94872       -3.25125       -1.04002
O         -1.34389       -5.43969        0.00830
C         -1.63079       -4.16364        2.66985
H         -0.76001       -1.60270        2.44816
H         -0.33046       -1.31401       -1.71796
C         -1.05155       -3.81860       -2.46387
C          4.41128        0.76360       -0.74569
C          3.80560       -0.51839       -0.72098
C          2.48169       -0.60794       -0.32797
C          1.78839        0.49720        0.09033
C          2.39626        1.72268        0.16116
C          3.72140        1.88286       -0.21179
O          5.69152        0.93136       -1.33745
C          4.53843       -1.79676       -1.15712
H          1.96358       -1.54988       -0.36336
H          1.81142        2.56057        0.50028
C          4.37345        3.26734       -0.07126
C         -2.26690       -3.19473        3.69280
C         -2.68536       -5.24141        2.35934
C         -0.38979       -4.80517        3.30850
C         -1.47956       -2.71551       -3.45924
C          0.32083       -4.35993       -2.89287
C         -2.11231       -4.93108       -2.54431
C         -0.12505       -6.16822        0.08850
H         -1.54081       -2.48276        4.08229
H         -3.08668       -2.63729        3.24100
H         -2.66665       -3.74205        4.54616
H         -3.55063       -4.80030        1.86560
H         -2.28481       -6.01159        1.70489
H         -3.02736       -5.72957        3.27160
H          0.07996       -5.51437        2.63120
H          0.35058       -4.04575        3.55906
H         -0.65178       -5.33636        4.22320
H         -0.70204       -1.96433       -3.58930
H         -1.68168       -3.13883       -4.44277
H         -2.38516       -2.21503       -3.11756
H          1.06917       -3.56806       -2.87465
H          0.65949       -5.14977       -2.22655
H          0.28255       -4.76472       -3.90382
H         -3.07897       -4.56457       -2.20048
H         -2.22898       -5.28819       -3.56721
H         -1.84097       -5.78401       -1.92744
H         -0.17588       -6.87504        0.91656
H          0.02594       -6.73239       -0.83164
H          0.71520       -5.48945        0.24053
C          5.65248        1.22912       -2.72760
C          4.34145       -2.00341       -2.66671
C          6.03828       -1.71797       -0.82056
C          3.97372       -3.03136       -0.41635
C          5.88096        3.14607        0.21670
C          4.14181        4.07006       -1.36055
C          3.75231        4.04528        1.11134
H          3.28181       -2.07954       -2.90933
H          4.75059       -1.17235       -3.23572
H          4.83212       -2.91618       -3.00362
H          6.52631       -0.91512       -1.36738
H          6.18334       -1.53329        0.24332
H          6.54663       -2.64734       -1.07616
H          3.97534       -2.87134        0.66152
H          2.95541       -3.25948       -0.72811
H          4.57575       -3.91567       -0.62410
H          6.40749        2.67798       -0.61108
H          6.32889        4.12606        0.37939
H          6.05400        2.54194        1.10666
H          4.58300        5.06370       -1.28692
H          4.58058        3.57046       -2.22072
H          3.07590        4.18690       -1.55491
H          4.29765        4.97089        1.29432
H          3.78397        3.45200        2.02485
H          2.71670        4.31887        0.91517
H          6.13205        2.19063       -2.90990
H          6.20057        0.46641       -3.28047
H          4.62067        1.26399       -3.07976
