111
-148.54630060
P         -2.17711        2.43585        0.13090
P         -0.14497        0.00960        0.47919
C         -1.65684        1.92418        1.78720
C         -0.77356        0.87754        1.93352
C         -1.95969        4.26554       -0.04606
C         -1.11795        4.60031       -1.25796
C         -2.08790        2.62392        2.89604
H         -2.75927        3.45782        2.77123
C         -1.63708        2.26712        4.15508
H         -1.97534        2.81147        5.02162
C         -0.74104        1.22581        4.29932
H         -0.37708        0.95698        5.27733
C         -0.29995        0.53659        3.18402
H          0.43153       -0.25100        3.27806
Pd        -1.05324        1.08634       -1.37127
Cl        -2.27140        2.09785       -2.96364
Cl         0.21153       -0.18762       -2.71991
C         -3.41038        4.78419       -0.12626
C         -3.99435        2.28667       -0.19032
H         -0.14298        4.10983       -1.21315
H         -1.61089        4.26554       -2.17193
H         -0.95298        5.67660       -1.34819
H         -3.44305        5.68537       -0.75583
H         -3.74871        5.10690        0.86931
H         -4.10335        1.55114       -0.99934
C         -4.38119        3.69994       -0.67281
C         -4.74436        1.82615        1.04117
H         -1.46318        4.61162        0.87092
H         -5.41657        3.91994       -0.37447
H         -4.37647        3.73137       -1.77234
H         -4.65448        2.55797        1.84520
H         -5.80941        1.69537        0.83551
H         -4.35214        0.87642        1.41270
C         -1.25436       -4.42626        0.51458
C         -0.69233       -3.84470       -0.64946
C         -0.38073       -2.49635       -0.62114
C         -0.52846       -1.74808        0.51747
C         -0.97987       -2.33461        1.67224
C         -1.31252       -3.67821        1.71745
O         -1.80064       -5.73650        0.46668
C         -0.46469       -4.63421       -1.94846
H         -0.05390       -1.99405       -1.51314
H         -1.09958       -1.71929        2.54464
C         -1.76554       -4.29318        3.05145
C          4.22296        1.20541       -0.00918
C          3.79122       -0.03729       -0.54098
C          2.47480       -0.41847       -0.33833
C          1.58539        0.42361        0.27537
C          1.96716        1.68012        0.67251
C          3.27404        2.11349        0.52421
O          5.60610        1.52687        0.02068
C          4.72503       -0.96330       -1.33648
H          2.12261       -1.37829       -0.67104
H          1.22174        2.32111        1.11166
C          3.64888        3.53438        0.97288
C         -0.18357       -6.12051       -1.66113
C         -1.70065       -4.49151       -2.84936
C          0.76638       -4.08915       -2.70624
C         -1.09909       -3.56701        4.24243
C         -3.28956       -4.15464        3.18544
C         -1.35745       -5.77474        3.14510
C         -3.17350       -5.77657        0.09652
H          0.66358       -6.22649       -0.98430
H         -1.03968       -6.60645       -1.20076
H          0.04635       -6.66034       -2.57940
H         -2.59222       -4.87524       -2.35864
H         -1.88068       -3.44447       -3.09215
H         -1.56830       -5.03656       -3.78355
H          1.64281       -4.08895       -2.05975
H          0.99204       -4.70831       -3.57410
H          0.60504       -3.07588       -3.07032
H         -0.01680       -3.53398        4.11992
H         -1.46429       -2.54660        4.34900
H         -1.31414       -4.08191        5.17853
H         -3.63735       -4.56813        4.13177
H         -3.58620       -3.10676        3.14535
H         -3.80514       -4.67561        2.38238
H         -1.85390       -6.37187        2.38424
H         -0.28232       -5.88595        3.00832
H         -1.62118       -6.19332        4.11605
H         -3.74502       -6.28836        0.87075
H         -3.56169       -4.76576       -0.03469
H         -3.28798       -6.33174       -0.83424
C          6.28297        1.06021        1.18083
C          3.92635       -1.74646       -2.40250
C          5.79989       -0.15732       -2.08870
C          5.38697       -1.96626       -0.38013
C          4.07739        3.50214        2.44763
C          4.78176        4.10917        0.10337
C          2.44283        4.49040        0.83040
H          3.25568       -2.47073       -1.94525
H          3.33286       -1.07006       -3.01722
H          4.59523       -2.30009       -3.06097
H          5.33728        0.58857       -2.73418
H          6.46136        0.36225       -1.40006
H          6.41567       -0.80811       -2.70896
H          5.97664       -1.45703        0.37857
H          4.63397       -2.56513        0.13169
H          6.04692       -2.64400       -0.92107
H          3.27015        3.12432        3.07480
H          4.93951        2.85540        2.59267
H          4.34092        4.49906        2.79996
H          5.69831        3.53539        0.21638
H          4.50367        4.09082       -0.94987
H          5.00250        5.14021        0.37849
H          2.73813        5.51879        1.03721
H          1.64405        4.24164        1.52761
H          2.04096        4.45593       -0.18151
H          6.72591        1.90439        1.70907
H          5.58926        0.54066        1.84304
H          7.08465        0.38192        0.88931
