171
-217.84213404
P         -1.60818        0.36922       -0.45265
P          1.59616       -0.40383       -0.29291
C         -0.85290        1.28454       -1.79860
C          0.93749       -1.41694       -1.61953
C         -0.02568        0.62662       -2.70189
C          0.62627        1.38219       -3.69572
C          0.39846        2.74629       -3.76795
C         -0.45114        3.37368       -2.88165
C         -1.07168        2.63716       -1.89213
C          1.16452       -2.77124       -1.57709
C          0.61447       -3.59871       -2.53564
C         -0.18085       -3.05986       -3.52440
C         -0.42347       -1.69721       -3.58335
C          0.16628       -0.84887       -2.62688
Cl         1.48436        0.41194        2.85072
Cl        -1.65863       -0.46736        2.80958
C         -1.28961       -1.15375       -4.66440
C          1.54857        0.74410       -4.67494
H         -0.62785        4.43411       -2.95801
H         -1.73593        3.11986       -1.19427
H          1.77531       -3.18477       -0.79113
H          0.80018       -4.65993       -2.50486
H          0.89605        3.31823       -4.53299
H         -0.62527       -3.70205       -4.26602
C         -3.97228       -3.23078       -1.81999
C         -2.93445       -3.41485       -0.91427
C         -2.21467       -2.29632       -0.51367
C         -2.52064       -1.05897       -1.02135
C         -3.54490       -0.89271       -1.92050
C         -4.29967       -1.98237       -2.33717
H         -4.54706       -4.08822       -2.11501
H         -1.41390       -2.37700        0.20104
H         -3.76733        0.09785       -2.28153
C         -4.22793        2.87946        2.27621
C         -4.77041        1.74956        1.67697
C         -3.96145        1.01823        0.81625
C         -2.66966        1.41169        0.56761
C         -2.14861        2.52668        1.17699
C         -2.91704        3.28213        2.05230
H         -4.84496        3.44729        2.94673
H         -4.32497        0.11891        0.35182
H         -1.12343        2.79414        0.98660
C          4.28536       -2.78488        2.47741
C          2.93365       -3.10421        2.42036
C          2.13511       -2.38969        1.53768
C          2.66722       -1.38273        0.77171
C          4.00134       -1.07071        0.85151
C          4.84272       -1.77478        1.70297
H          4.92544       -3.32497        3.14926
H          1.08262       -2.60510        1.46163
H          4.37829       -0.26083        0.25303
C          3.93640        3.24566       -1.57485
C          2.93856        3.38846       -0.61825
C          2.21126        2.25929       -0.26717
C          2.47705        1.04870       -0.85606
C          3.46796        0.92134       -1.79832
C          4.22346        2.02587       -2.17575
H          4.52421        4.10066       -1.85080
H          1.44726        2.31724        0.48932
H          3.65605       -0.05148       -2.21986
Pd        -0.08377        0.04367        1.28450
C         -3.84906       -5.28619        0.47445
C         -2.64243       -4.81412       -0.35604
C         -1.39488       -4.81209        0.54800
C         -2.39629       -5.79257       -1.51974
H         -3.66884       -6.27376        0.89873
H         -4.04410       -4.59588        1.29501
H         -4.74978       -5.34288       -0.13588
H         -1.18093       -5.81606        0.91419
H         -0.51991       -4.46397        0.00035
H         -1.53864       -4.16924        1.41615
H         -2.14639       -6.78590       -1.14738
H         -3.27696       -5.88813       -2.15344
H         -1.57181       -5.44906       -2.14324
C         -5.01220       -1.06807       -4.57286
C         -5.48885       -1.76599       -3.28588
C         -6.53563       -0.88442       -2.58153
C         -6.15552       -3.09869       -3.67861
H         -5.84902       -0.88011       -5.24539
H         -4.53951       -0.11094       -4.35649
H         -4.29259       -1.68953       -5.10364
H         -7.40025       -0.71558       -3.22317
H         -6.88386       -1.36093       -1.66546
H         -6.11907        0.08764       -2.31955
H         -6.55869       -3.60975       -2.80456
H         -6.98171       -2.92861       -4.36893
H         -5.44444       -3.76189       -4.17103
C         -6.61637        0.05628        1.23274
C         -6.20662        1.32193        2.01027
C         -7.17828        2.45694        1.63834
C         -6.30623        1.02158        3.51703
H         -5.96989       -0.78534        1.48099
H         -7.63969       -0.23217        1.47250
H         -6.56458        0.22817        0.15858
H         -7.10029        2.69769        0.57824
H         -8.20944        2.17044        1.84442
H         -6.96571        3.36324        2.20403
H         -6.07558        1.90400        4.11269
H         -7.30983        0.69113        3.78414
H         -5.60496        0.23618        3.79843
C         -3.20101        5.05248        3.85879
C         -2.30682        4.52188        2.72129
C         -2.14178        5.62650        1.66370
C         -0.93229        4.16332        3.32134
H         -2.72776        5.89638        4.36068
H         -4.16226        5.39712        3.47857
H         -3.38086        4.27941        4.60571
H         -1.52100        5.28607        0.83656
H         -3.10954        5.91466        1.25359
H         -1.67725        6.51412        2.09279
H         -0.22329        3.86801        2.55034
H         -0.50413        5.01349        3.85193
H         -1.02363        3.33621        4.02504
C          1.89237       -5.37700        2.37765
C          2.30225       -4.20437        3.28454
C          1.05921       -3.64235        4.00401
C          3.28363       -4.72292        4.35324
H          1.19086       -5.05027        1.61198
H          2.76243       -5.79680        1.87314
H          1.41786       -6.17120        2.95370
H          1.32268       -2.76905        4.60023
H          0.28749       -3.34141        3.29713
H          0.62314       -4.38733        4.66911
H          2.80558       -5.46975        4.98704
H          4.15415       -5.19205        3.89543
H          3.62496       -3.91142        4.99576
C          6.75530       -0.33452        0.84087
C          6.33661       -1.44359        1.82692
C          7.16821       -2.70302        1.52098
C          6.62829       -0.96115        3.25918
H          6.55955       -0.63329       -0.18883
H          6.21850        0.59281        1.04041
H          7.82084       -0.12200        0.92655
H          6.95321       -3.50314        2.22814
H          6.95046       -3.07346        0.51939
H          8.23531       -2.48841        1.57679
H          7.67956       -0.69887        3.37678
H          6.03111       -0.08093        3.49665
H          6.39193       -1.73234        3.99144
C          3.57883        5.84447       -0.39826
C          2.63727        4.72219        0.07838
C          2.81439        4.54974        1.59906
C          1.18895        5.13492       -0.23317
H          3.35123        6.78125        0.11035
H          4.61963        5.59900       -0.18781
H          3.47303        6.01710       -1.46915
H          2.60646        5.48138        2.12491
H          2.14424        3.78763        1.99387
H          3.83465        4.24822        1.83514
H          0.48726        4.36583        0.08430
H          0.92775        6.06283        0.27523
H          1.05529        5.28651       -1.30371
C          5.18866        2.92787       -4.31674
C          5.39127        1.92222       -3.16751
C          5.50349        0.50729       -3.76821
C          6.70417        2.24296       -2.42939
H          5.99330        2.85006       -5.04774
H          4.24736        2.74465       -4.83281
H          5.17341        3.95340       -3.95014
H          5.69636       -0.23420       -2.99312
H          4.59032        0.22834       -4.29266
H          6.32428        0.45501       -4.48339
H          7.55903        2.16471       -3.10085
H          6.69091        3.25293       -2.02109
H          6.86010        1.55097       -1.60236
H         -1.78704       -0.23560       -4.34856
H          1.84839       -0.25363       -4.35180
H         -2.06215       -1.87263       -4.93889
H         -0.70683       -0.93382       -5.55955
H          2.45518        1.33708       -4.79437
H          1.07726        0.65592       -5.65470
