87
-129.17845020
P         -1.56485       -0.29598       -0.38651
P          1.67532        0.32947        0.36704
C         -1.14540        1.00097       -1.55544
C          1.53174       -0.71167       -1.11066
C         -0.02361        0.81896       -2.35290
C          0.31268        1.81361       -3.29275
C         -0.50140        2.92853       -3.41041
C         -1.61754        3.08447       -2.61406
C         -1.93779        2.11520       -1.68371
C          2.20185       -1.90760       -0.99212
C          2.12826       -2.85543       -1.99474
C          1.36040       -2.60566       -3.11060
C          0.66139       -1.41856       -3.24477
C          0.75809       -0.43958       -2.23721
Cl         0.94692       -0.49561        3.37476
Cl        -1.62361       -2.20269        2.23574
H         -2.23692        3.96045       -2.71585
H         -2.81346        2.22127       -1.06539
H          2.77648       -2.10300       -0.09861
H          2.65662       -3.78951       -1.89661
H         -0.24898        3.68333       -4.13568
H          1.28422       -3.34687       -3.88809
C         -2.58261       -4.03951       -2.75012
C         -1.68512       -4.13155       -1.69515
C         -1.39515       -2.98272       -0.96973
C         -1.99050       -1.78545       -1.29072
C         -2.88529       -1.70340       -2.33167
C         -3.18502       -2.83701       -3.06443
H         -2.80469       -4.92094       -3.32720
C         -1.00627       -5.41601       -1.37394
H         -0.69367       -3.02821       -0.15410
H         -3.33233       -0.75174       -2.57329
H         -3.88103       -2.77917       -3.88515
C         -5.09068        1.02590        2.17920
C         -5.16893       -0.15158        1.46183
C         -4.10578       -0.55164        0.67447
C         -2.97449        0.22713        0.60963
C         -2.89322        1.39691        1.32767
C         -3.95316        1.81932        2.11914
H         -5.91545        1.33588        2.79796
H         -6.05523       -0.76190        1.51993
H         -4.14827       -1.47442        0.11927
H         -1.99847        1.99154        1.27363
C         -3.84408        3.07965        2.90312
C          6.06029        0.25413        1.58561
C          5.69976        0.55320        0.28637
C          4.36407        0.57521       -0.07143
C          3.40224        0.29399        0.87116
C          3.76114       -0.00165        2.16415
C          5.09604       -0.02008        2.54529
H          7.09973        0.23027        1.86561
H          6.45772        0.76703       -0.44928
H          4.06612        0.80127       -1.08339
H          2.99425       -0.22227        2.88452
C          5.48246       -0.36735        3.94010
C          0.36360        4.68306        0.30360
C         -0.04482        3.84597        1.32266
C          0.36839        2.52786        1.33438
C          1.16164        2.05117        0.31643
C          1.59992        2.89137       -0.67950
C          1.20082        4.22324       -0.70319
H          0.04502        5.71149        0.28898
H         -0.67090        4.22290        2.11483
H          0.11259        1.87537        2.15441
H          2.24930        2.50845       -1.44815
C          1.65253        5.14145       -1.78393
Pd        -0.15381       -0.71140        1.43738
C          1.51547        1.68495       -4.16063
C         -0.19184       -1.21673       -4.44926
H          2.06392        2.62665       -4.20965
H          2.20025        0.92506       -3.78205
H          1.23350        1.40881       -5.17735
H          0.41693       -0.97778       -5.32203
H         -0.76287       -2.11847       -4.67504
H         -0.90703       -0.40673       -4.30291
H         -1.62292       -6.27023       -1.65683
H         -0.05632       -5.49429       -1.90463
H         -0.80184       -5.49396       -0.30511
H         -4.81100        3.38220        3.30739
H         -3.15413        2.95593        3.73909
H         -3.47453        3.89503        2.27941
H          4.68227       -0.12641        4.64142
H          5.69658       -1.43331        4.02842
H          6.37187        0.18284        4.25045
H          0.80145        5.52208       -2.35041
H          2.19036        5.99502       -1.36888
H          2.31954        4.63531       -2.48301
