111
-148.55075155
P         -2.59629        1.97854        0.13121
P          0.16614        0.45714        0.48246
C         -1.79533        1.90525        1.76218
C         -0.57153        1.28671        1.89963
C         -3.62609        3.51537       -0.00082
C         -3.28897        4.32264       -1.23452
C         -2.41150        2.45425        2.86942
H         -3.37898        2.91733        2.76745
C         -1.79385        2.39130        4.10667
H         -2.27544        2.82120        4.96977
C         -0.56463        1.77477        4.23810
H         -0.08569        1.72192        5.20195
C          0.04568        1.21415        3.13084
H          0.99493        0.70898        3.21898
Pd        -0.94773        1.30623       -1.35808
Cl        -2.28449        2.02062       -3.00693
Cl         0.69565        0.53951       -2.68452
C         -5.06788        2.96523        0.01033
C         -3.90058        0.68354       -0.09242
H         -2.22667        4.57502       -1.26712
H         -3.52197        3.75776       -2.13778
H         -3.86068        5.25275       -1.27493
H         -5.71599        3.62308       -0.58699
H         -5.47416        2.99910        1.03191
H         -3.56139        0.02620       -0.90509
C         -5.13378        1.50512       -0.51995
C         -4.09873       -0.11036        1.18047
H         -3.42123        4.10945        0.89968
H         -6.04835        1.00546       -0.16853
H         -5.20735        1.52149       -1.61739
H         -3.17286       -0.60037        1.48840
H         -4.41153        0.54297        1.99710
H         -4.86391       -0.88081        1.05891
C         -1.50476       -3.77713        0.31394
C         -0.97283       -3.17921       -0.85669
C         -0.46802       -1.89535       -0.76119
C         -0.41364       -1.23921        0.43968
C         -0.82151       -1.85618        1.59298
C         -1.33739       -3.14132        1.57117
O         -2.24246       -4.98716        0.22123
C         -0.98488       -3.87127       -2.22793
H         -0.12610       -1.37237       -1.63677
H         -0.75371       -1.30685        2.51540
C         -1.74451       -3.80557        2.89572
C          4.69658        0.77742        0.15652
C          4.03837       -0.41389       -0.24114
C          2.65992       -0.46926       -0.12521
C          1.95023        0.56867        0.41894
C          2.59102        1.68257        0.89543
C          3.96995        1.79819        0.82225
O          6.07053        0.96684       -0.14909
C          4.78123       -1.61838       -0.83935
H          2.11442       -1.32488       -0.48253
H          1.99344        2.47074        1.31991
C          4.65110        3.03158        1.43615
C          0.21541       -3.40557       -3.08419
C         -0.86506       -5.39877       -2.08163
C         -2.28262       -3.50686       -2.96516
C         -0.85184       -3.30345        4.05336
C         -3.20514       -3.45287        3.21616
C         -1.57066       -5.33366        2.82621
C         -3.63618       -4.79780        0.01005
H          1.15152       -3.53511       -2.54232
H          0.28007       -3.98331       -4.00584
H          0.12701       -2.35864       -3.37014
H         -0.81096       -5.88277       -3.05645
H          0.03233       -5.66104       -1.52222
H         -1.71966       -5.81556       -1.55475
H         -3.15763       -3.83211       -2.40743
H         -2.35830       -2.42802       -3.10029
H         -2.31721       -3.97359       -3.94916
H         -1.05091       -3.86412        4.96641
H          0.20328       -3.42457        3.80944
H         -1.03404       -2.25347        4.27762
H         -3.32832       -2.37507        3.31848
H         -3.87458       -3.78936        2.42816
H         -3.52290       -3.91742        4.14924
H         -2.23245       -5.77512        2.08531
H         -0.54724       -5.59137        2.55569
H         -1.79511       -5.79782        3.78625
H         -4.19552       -5.26293        0.82163
H         -3.87384       -3.73402       -0.03268
H         -3.93296       -5.27378       -0.92437
C          6.30015        1.58778       -1.40780
C          4.82912       -1.47100       -2.36788
C          6.20671       -1.73564       -0.27035
C          4.05004       -2.93576       -0.49263
C          6.06405        2.69065        1.94404
C          4.72230        4.15015        0.38584
C          3.84892        3.54627        2.65324
H          3.82194       -1.41578       -2.78058
H          5.35486       -0.56485       -2.65965
H          5.33696       -2.31872       -2.82700
H          6.81505       -0.87674       -0.54178
H          6.18172       -1.79653        0.81713
H          6.70759       -2.62636       -0.64880
H          3.88353       -3.01546        0.58129
H          3.08671       -3.00785       -0.99458
H          4.63788       -3.79843       -0.80539
H          6.52034        3.54787        2.43847
H          6.02729        1.86764        2.65698
H          6.71878        2.39555        1.12789
H          3.72431        4.41736        0.03925
H          5.18727        5.04482        0.79915
H          5.30142        3.84072       -0.48087
H          4.39277        4.33783        3.16829
H          3.67105        2.74296        3.36780
H          2.88663        3.96085        2.35685
H          6.87738        0.91969       -2.04668
H          5.35225        1.82469       -1.89278
H          6.87455        2.50288       -1.26445
