111
-148.55636609
P         -2.52836        2.07416        0.84290
P          0.13350        0.39869        0.47148
C         -1.43303        1.80048        2.26110
C         -0.25691        1.10433        2.08501
C         -3.31071        3.75088        0.88705
C         -2.70222        4.66957       -0.14990
C         -1.77357        2.27070        3.51324
H         -2.70441        2.79615        3.65038
C         -0.92621        2.05022        4.58549
H         -1.19089        2.41763        5.56355
C          0.25570        1.35767        4.40475
H          0.91418        1.18419        5.23990
C          0.58912        0.87856        3.15067
H          1.50009        0.32184        2.99503
Pd        -1.31954        1.42844       -1.01018
Cl        -2.99893        2.16140       -2.30161
Cl         0.00655        0.73420       -2.68823
C         -4.80393        3.43881        0.67360
C         -4.03733        1.00430        0.86325
H         -2.83869        4.26511       -1.15385
H         -3.16496        5.65899       -0.12774
H         -1.62839        4.79274        0.01017
H         -5.03169        3.52514       -0.39780
H         -5.42952        4.19573        1.17069
H         -4.14197        0.60694       -0.15534
C         -5.16627        2.00752        1.16387
C         -3.90270       -0.11988        1.86702
H         -3.14389        4.14644        1.89697
H         -5.34417        2.02540        2.24796
H         -6.11151        1.66589        0.71523
H         -3.05689       -0.76613        1.62285
H         -3.73454        0.27443        2.87091
H         -4.80302       -0.73789        1.89854
C         -1.15747       -3.96844        0.27120
C         -1.06021       -3.32576        1.53464
C         -0.64493       -2.00469        1.56779
C         -0.41560       -1.30631        0.41136
C         -0.63874       -1.88522       -0.80961
C         -1.04662       -3.20202       -0.91889
O         -1.28070       -5.37968        0.19692
C         -1.39833       -4.00760        2.87135
H         -0.48926       -1.50585        2.50855
H         -0.47977       -1.28781       -1.69071
C         -1.36144       -3.73772       -2.32516
C          4.50252        0.80738       -0.75524
C          3.78093       -0.37307       -1.07390
C          2.45411       -0.45078       -0.68800
C          1.86358        0.54739        0.04119
C          2.58651        1.63860        0.44688
C          3.92323        1.77634        0.10771
O          5.76313        1.05244       -1.35772
C          4.37626       -1.57355       -1.82882
H          1.85651       -1.29905       -0.97266
H          2.09042        2.39244        1.03462
C          4.69777        2.96272        0.70719
C         -2.29626       -3.07422        3.71340
C         -2.17519       -5.32163        2.67877
C         -0.09895       -4.28767        3.64403
C         -2.25022       -2.71870       -3.07353
C         -0.04877       -3.92696       -3.10369
C         -2.13439       -5.06706       -2.28581
C         -0.02516       -6.03800        0.16672
H         -1.78744       -2.14837        3.97644
H         -3.20308       -2.81816        3.16662
H         -2.59245       -3.55717        4.64424
H         -1.56532       -6.07073        2.17939
H         -2.48858       -5.73683        3.63636
H         -3.06476       -5.15656        2.07186
H         -0.31067       -4.75344        4.60615
H          0.55467       -4.95473        3.08511
H          0.44939       -3.36495        3.83142
H         -1.72932       -1.77954       -3.25209
H         -2.55552       -3.10859       -4.04409
H         -3.15071       -2.49992       -2.50039
H          0.60346       -4.64351       -2.60794
H         -0.24305       -4.29075       -4.11225
H          0.49335       -2.98556       -3.18594
H         -2.42997       -5.37956       -3.28706
H         -1.52881       -5.86267       -1.85834
H         -3.03449       -4.97017       -1.67975
H          0.53708       -5.81228        1.07140
H         -0.18498       -7.11439        0.10086
H          0.55078       -5.70589       -0.69563
C          5.65823        1.75351       -2.58574
C          5.91411       -1.54486       -1.85139
C          3.95874       -2.88539       -1.12590
C          3.83802       -1.58559       -3.26932
C          4.38969        3.06477        2.21787
C          6.22150        2.79706        0.57148
C          4.25816        4.26351        0.01527
H          6.28434       -0.69510       -2.41994
H          6.31185       -1.46890       -0.84002
H          6.31718       -2.44798       -2.30906
H          4.43903       -3.74526       -1.59218
H          4.24795       -2.86772       -0.07553
H          2.88372       -3.05029       -1.17707
H          4.13828       -0.69025       -3.80975
H          4.21112       -2.45000       -3.81790
H          2.74934       -1.62647       -3.27696
H          4.62018        2.12622        2.72122
H          4.98420        3.85054        2.68327
H          3.34268        3.29811        2.40375
H          6.52976        2.81842       -0.47102
H          6.75120        3.59743        1.08762
H          6.54397        1.84678        0.99556
H          4.47401        4.23485       -1.05095
H          4.77505        5.12402        0.43930
H          3.18695        4.42422        0.13264
H          5.04949        1.18727       -3.28846
H          5.19322        2.72439       -2.42385
H          6.65457        1.89614       -3.00466
