64
-97.21332564
Cl        -1.60603       -1.26541       -2.59233
Cl         1.54270       -1.33589       -2.95633
P          1.92555       -0.65832        0.25721
C          2.11354       -2.33401        1.02399
C          3.71194       -0.27616       -0.08392
P         -1.26151       -0.12197        0.45413
C          1.28993        0.57809        1.44253
C         -0.13184        0.83999        1.52798
C         -0.32749        1.95462        2.44340
C          0.98147        2.39220        2.89654
C          1.98362        1.53010        2.29488
H         -1.28718        2.36164        2.76740
H          1.17599        3.20152        3.60417
Pd         0.15575       -0.93310       -1.24454
H          3.06425        1.59359        2.43655
C         -5.00699        2.13375       -0.86493
C         -4.03937        2.79570       -0.13636
C         -2.90140        2.12304        0.26797
C         -2.72654        0.79725       -0.06010
C         -3.69487        0.13571       -0.78079
C         -4.83690        0.80236       -1.18702
H         -5.89481        2.65609       -1.18228
H         -4.16947        3.83522        0.11660
H         -2.14247        2.63496        0.83204
H         -3.55032       -0.90251       -1.03200
H         -5.58975        0.28277       -1.75677
C         -2.61391       -3.93480        2.51848
C         -2.37710       -2.79552        3.26329
C         -1.97279       -1.63198        2.63323
C         -1.80645       -1.62068        1.26782
C         -2.04852       -2.74980        0.52039
C         -2.45250       -3.91404        1.14672
H         -2.92859       -4.84161        3.00878
H         -2.50554       -2.81206        4.33312
H         -1.77882       -0.73389        3.19816
H         -1.92975       -2.70791       -0.55061
H         -2.64232       -4.80107        0.56499
C          4.05442       -0.35960       -1.55541
H          3.89918        0.73637        0.29696
C          4.45061       -1.33334        0.76026
H          4.65463       -0.93520        1.76508
C          3.61765       -2.63715        0.88184
H          5.43506       -1.54097        0.31596
C          1.63759       -2.31018        2.46030
H          1.50847       -3.03026        0.42715
H          3.95585       -3.23529        1.74021
H          3.79197       -3.26505       -0.00397
H          2.21713       -1.59243        3.04430
H          0.58927       -2.01411        2.52667
H          1.74246       -3.28856        2.93512
H          5.11582       -0.17076       -1.73029
H          3.82806       -1.35395       -1.94349
H          3.48641        0.35908       -2.14772
Fe         0.85932        2.48780        0.86004
C          2.21397        3.19102       -0.47376
C          1.40322        4.28549        0.03482
C          0.01592        4.00976       -0.29563
C         -0.02598        2.73097       -0.98169
C          1.32989        2.23960       -1.11987
H          3.30333        3.12265       -0.42340
H          1.77593        5.17602        0.54615
H         -0.83928        4.65146       -0.07383
H         -0.91395        2.25707       -1.40459
H          1.62259        1.33711       -1.65872
