171
-217.84351245
P         -1.65266        0.38018       -0.38471
P          1.61227       -0.37658       -0.30193
C         -0.90092        1.33038       -1.70714
C          0.91900       -1.36976       -1.62280
C         -0.06732        0.70399       -2.62741
C          0.58851        1.49491       -3.59082
C          0.35650        2.86010       -3.61887
C         -0.49928        3.45590       -2.71658
C         -1.12196        2.68504       -1.75504
C          1.14748       -2.72408       -1.62086
C          0.58009       -3.52430       -2.59237
C         -0.22829       -2.95758       -3.55501
C         -0.46996       -1.59341       -3.57340
C          0.13028       -0.77326       -2.59949
Cl         1.47730        0.46540        2.88261
Cl        -1.66260       -0.46653        2.80617
C         -1.33731       -1.01255       -4.63371
C          1.53366        0.89748       -4.57415
H         -0.67618        4.51834       -2.75529
H         -1.78586        3.14253       -1.03970
H          1.77509       -3.15762       -0.85936
H          0.76617       -4.58589       -2.59458
H          0.85960        3.45880       -4.35944
H         -0.68165       -3.57875       -4.30898
C         -3.97666       -3.22264       -1.81345
C         -2.93548       -3.40937       -0.91232
C         -2.22933       -2.28887       -0.49317
C         -2.55012       -1.04683       -0.97999
C         -3.57670       -0.87825       -1.87627
C         -4.31964       -1.96981       -2.30919
H         -4.54161       -4.08185       -2.12196
H         -1.42793       -2.37202        0.22052
H         -3.80984        0.11485       -2.22322
C         -4.26654        2.79644        2.42963
C         -4.82168        1.71120        1.76344
C         -4.01364        1.01017        0.87684
C         -2.71191        1.39249        0.66484
C         -2.18026        2.46711        1.33455
C         -2.94705        3.18819        2.24000
H         -4.87973        3.33486        3.12740
H         -4.38587        0.14113        0.36418
H         -1.14791        2.72724        1.17170
C          4.30067       -2.77596        2.46077
C          2.95731       -3.12269        2.36711
C          2.15845       -2.40167        1.48963
C          2.68098       -1.36390        0.75892
C          4.00545       -1.02523        0.87680
C          4.84651       -1.72868        1.72734
H          4.93468       -3.32929        3.12620
H          1.11313       -2.63971        1.38755
H          4.38653       -0.19379        0.31020
C          3.98103        3.18403       -1.75465
C          2.93230        3.40069       -0.86968
C          2.20553        2.29690       -0.44067
C          2.51165        1.04411       -0.90946
C          3.53915        0.84739       -1.79889
C          4.30365        1.92214       -2.23745
H          4.57870        4.02264       -2.06079
H          1.40258        2.40050        0.26838
H          3.74671       -0.15553       -2.13222
Pd        -0.05599        0.00319        1.29594
C         -3.82138       -5.30963        0.45528
C         -2.62604       -4.81416       -0.37777
C         -1.37088       -4.81375        0.51555
C         -2.38054       -5.77321       -1.55773
H         -4.01555       -4.63382        1.28803
H         -4.72661       -5.36467       -0.14851
H         -3.62904       -6.30201        0.86265
H         -1.51450       -4.18774        1.39588
H         -1.14241       -5.82131        0.86260
H         -0.50490       -4.44602       -0.03358
H         -2.11659       -6.76899       -1.20199
H         -3.26604       -5.86948       -2.18452
H         -1.56570       -5.41201       -2.18387
C         -6.17942       -3.08550       -3.64618
C         -5.50997       -1.75326       -3.25653
C         -5.03274       -1.05823       -4.54447
C         -6.55549       -0.86927       -2.55329
H         -7.01050       -2.91456       -4.33038
H         -5.47218       -3.74814       -4.14482
H         -6.57605       -3.59751       -2.76968
H         -4.55927       -0.10127       -4.32895
H         -4.31337       -1.68155       -5.07350
H         -5.86917       -0.87066       -5.21760
H         -6.90016       -1.34148       -1.63364
H         -6.13956        0.10478       -2.29807
H         -7.42237       -0.70474       -3.19301
C         -7.21519        2.47037        1.77181
C         -6.26807        1.29089        2.06019
C         -6.37911        0.88181        3.54015
C         -6.70161        0.09647        1.18881
H         -7.12630        2.78970        0.73355
H         -8.25294        2.18943        1.95073
H         -6.98916        3.32657        2.40609
H         -7.39090        0.55612        3.78089
H         -5.69705        0.06157        3.76336
H         -6.12928        1.71218        4.19956
H         -6.07842       -0.77731        1.37854
H         -7.73368       -0.18330        1.39964
H         -6.63617        0.34644        0.13080
C         -1.01487        3.89072        3.67976
C         -2.31388        4.36362        2.99707
C         -3.25485        4.91660        4.08481
C         -2.00078        5.49042        1.99785
H         -0.55987        4.69687        4.25477
H         -1.21766        3.06297        4.35895
H         -0.28063        3.54901        2.95233
H         -4.17062        5.31510        3.64879
H         -3.52143        4.14041        4.80196
H         -2.77530        5.72594        4.63527
H         -2.91447        5.85190        1.52639
H         -1.51925        6.33262        2.49444
H         -1.33826        5.14006        1.20854
C          1.06778       -3.75238        3.89838
C          2.33524       -4.26388        3.18397
C          3.30820       -4.79645        4.25357
C          1.96760       -5.41507        2.23237
H          1.30221       -2.89592        4.53009
H          0.30353       -3.44163        3.18774
H          0.63459       -4.52902        4.52823
H          2.83467       -5.57297        4.85422
H          4.19638       -5.23289        3.79734
H          3.62086       -3.99942        4.92798
H          1.49852       -6.23664        2.77341
H          1.27485       -5.07872        1.46288
H          2.85603       -5.80100        1.73286
C          7.09122       -2.18212        2.84154
C          6.32129       -1.31439        1.82793
C          6.40398        0.15595        2.28067
C          6.98416       -1.46804        0.44646
H          6.66127       -2.09393        3.83910
H          7.07773       -3.23207        2.54971
H          8.13399       -1.87092        2.90314
H          5.92608        0.82057        1.56182
H          5.90684        0.29059        3.24106
H          7.44088        0.47360        2.38859
H          6.92463       -2.50075        0.10347
H          6.49502       -0.84107       -0.29788
H          8.03562       -1.18375        0.48357
C          3.82117        5.30587        0.48928
C          2.63762        4.81924       -0.36524
C          1.36069        4.85501        0.49432
C          2.43840        5.76326       -1.56610
H          3.63773        6.30819        0.87593
H          3.98205        4.64026        1.33720
H          4.74174        5.33400       -0.09281
H          1.47464        4.24652        1.39085
H          1.13629        5.87258        0.81378
H          0.50558        4.48526       -0.07048
H          3.33997        5.83251       -2.17322
H          1.63138        5.40712       -2.20533
H          2.18542        6.76958       -1.23274
C          6.79734        2.04359       -2.35742
C          5.51833        1.73996       -3.15847
C          5.41923        2.70379       -4.35659
C          5.60631        0.30002       -3.70138
H          6.79553        3.06902       -1.98906
H          6.87964        1.38074       -1.49640
H          7.68610        1.90957       -2.97377
H          5.42366        3.74409       -4.03433
H          6.26036        2.56607       -5.03587
H          4.50273        2.53146       -4.91932
H          4.70266        0.03178       -4.24824
H          6.45022        0.19458       -4.38299
H          5.74711       -0.41798       -2.89385
H         -2.06503       -1.74437       -4.98547
H          1.78190       -0.13325       -4.31797
H         -0.74487       -0.69337       -5.49191
H         -1.88758       -0.14718       -4.26154
H          2.46628        1.46140       -4.60196
H          1.10829        0.90401       -5.57868
