105
-153.07111236
Cl         0.30750        1.97947        3.06863
Pd        -0.37300        1.44523        0.98893
P         -1.16367        0.72863       -1.06331
N         -0.20296       -0.42641       -1.96731
C          0.36094       -1.66323       -1.68974
C          0.27434       -2.31496       -0.43429
C          0.98962       -3.51314       -0.22632
C          0.89686       -4.18882        1.12101
C          1.98134       -5.24856        1.36921
C          2.13686       -6.16628        0.15324
C          2.51915       -5.35791       -1.09614
C          1.73754       -4.07822       -1.26173
C          1.77153       -3.44391       -2.49605
C          1.10238       -2.26659       -2.70527
H          1.16657       -1.77450       -3.66023
H          2.35236       -3.88055       -3.29088
H          3.58690       -5.11097       -1.06351
H          2.87745       -6.95396        0.35193
H          2.93750       -4.74958        1.57098
H          0.94306       -3.42222        1.90393
C         -0.70329       -1.89936        0.60199
C         -0.25934       -1.29209        1.80958
C         -1.17647       -1.13903        2.85419
C         -2.47444       -1.55950        2.72203
C         -2.91583       -2.17933        1.55943
C         -4.32899       -2.69607        1.50383
C         -4.47641       -3.89707        0.55956
C         -3.89924       -3.56200       -0.81889
C         -2.41847       -3.14851       -0.73431
C         -2.02945       -2.35841        0.49604
H         -1.79076       -4.04681       -0.77215
H         -4.48256       -2.74518       -1.25764
H         -5.52735       -4.21004        0.48119
H         -4.99005       -1.88464        1.17968
H         -3.16707       -1.42227        3.53500
H         -0.85333       -0.65698        3.76000
N          1.04870       -0.81768        1.97425
P          1.69651        0.25349        0.72574
C          2.91617       -0.62931       -0.24919
C          3.26896       -0.21587       -1.51131
C          4.24649       -0.90462       -2.20606
C          4.88876       -1.99452       -1.63260
C          4.53000       -2.38359       -0.34931
C          3.54854       -1.69631        0.34156
H          3.25932       -1.99212        1.33755
H          5.01720       -3.23053        0.10260
C          5.90759       -2.76316       -2.39922
H          4.51360       -0.60171       -3.20405
H          2.77709        0.63510       -1.95129
C          2.62618        1.61645        1.43853
C          3.40367        1.40337        2.55081
C          4.12581        2.45133        3.09281
C          4.08086        3.71361        2.51578
C          3.29127        3.90589        1.39010
C          2.57102        2.85729        0.84841
H          1.95906        3.00443       -0.02730
H          3.23996        4.88386        0.94282
C          4.83018        4.85114        3.11736
H          4.72662        2.29484        3.97236
H          3.44329        0.42017        2.99162
H          1.23216       -0.35069        2.85317
H         -0.22427       -0.13196       -2.93617
C         -0.97515        2.29303       -1.92346
C          0.29352        2.68157       -2.28159
C          0.49099        3.90162       -2.90241
C         -0.58346        4.74233       -3.16056
C         -1.85837        4.32782       -2.79799
C         -2.05243        3.10823       -2.17598
H         -3.03836        2.79383       -1.87476
H         -2.69854        4.96984       -3.00052
C         -0.37706        6.04773       -3.84677
H          1.48258        4.20855       -3.18826
H          1.12300        2.02679       -2.07124
C         -2.89612        0.28629       -1.17766
C         -3.34614       -0.28742       -2.34308
C         -4.68963       -0.58394       -2.49082
C         -5.58828       -0.31367       -1.46735
C         -5.11844        0.29017       -0.30927
C         -3.77729        0.59241       -0.16833
H         -3.41859        1.09971        0.71123
H         -5.81204        0.53218        0.47786
C         -7.03514       -0.62855       -1.62218
H         -5.04680       -1.03244       -3.40206
H         -2.64463       -0.49617       -3.13508
Cl        -2.06471        2.91449        1.12226
H          2.38909       -5.97018       -1.99773
H          1.75788       -5.83305        2.27289
H          1.19029       -6.69108       -0.02775
H         -0.09572       -4.64472        1.21551
H         -4.02607       -4.40938       -1.50720
H         -2.13927       -2.56735       -1.62137
H         -4.66060       -2.96048        2.51602
H         -3.94031       -4.75767        0.97915
H          5.43605       -3.55769       -2.97932
H          6.44984       -2.11720       -3.09112
H          6.63891       -3.22208       -1.73242
H          4.20161        5.39866        3.82093
H          5.71260        4.50205        3.65543
H          5.16560        5.55063        2.35033
H         -1.12231        6.77968       -3.53226
H          0.60705        6.46033       -3.62014
H         -0.45320        5.93301       -4.92889
H         -7.18683       -1.45451       -2.31854
H         -7.47831       -0.91596       -0.66758
H         -7.58152        0.23625       -2.00092
