59
-75.79881250
Cl         1.65744        0.25344        2.34276
P          1.50788       -0.00674       -0.84525
P         -1.64259       -0.29872       -0.72031
C          0.49493       -0.06560       -2.39535
H          0.18496        0.95294       -2.64037
H          1.12494       -0.41994       -3.21739
C         -0.70909       -0.93919       -2.17669
H         -0.41255       -1.97011       -1.96863
H         -1.37522       -0.95316       -3.04463
C          2.94161       -1.17458       -0.94818
H          2.84983       -1.71524       -1.89856
C          2.40582        1.59175       -0.55377
H          1.95424        2.05337        0.33343
C         -3.21584       -1.20559       -0.35441
H         -3.29065       -1.25355        0.73884
C         -2.32994        1.37789       -1.10485
H         -2.15203        1.55006       -2.17315
C          4.15928       -0.22836       -0.95922
H          5.01621       -0.72254       -0.47843
H          4.47344       -0.03475       -1.99556
C          3.84413        1.12118       -0.25869
H          4.56528        1.89105       -0.56625
H          3.98087        1.00553        0.82682
C         -4.29032       -0.25764       -0.91571
H         -4.48214       -0.52190       -1.96498
H         -5.24681       -0.40969       -0.39235
C         -3.83671        1.22538       -0.82648
H         -4.05049        1.60936        0.18033
H         -4.42102        1.85654       -1.51299
C          2.95055       -2.16487        0.21092
H          2.90499       -1.60270        1.15278
H          3.91736       -2.68706        0.23253
C          2.28670        2.54065       -1.74229
H          2.74708        2.06701       -2.61930
H          1.22692        2.66351       -2.00080
C         -3.24830       -2.61355       -0.93735
H         -4.27689       -2.99765       -0.88999
H         -3.00912       -2.56169       -2.00731
C         -1.64245        2.45362       -0.27252
H         -1.82751        2.24953        0.79077
H         -0.55467        2.36425       -0.39536
C          1.81977       -3.17874        0.14174
H          1.83978       -3.87451        0.98359
H          1.87220       -3.76846       -0.77543
H          0.84818       -2.68599        0.14969
C          2.90293        3.90970       -1.48889
H          2.76760        4.58200       -2.33933
H          3.97483        3.84256       -1.29793
H          2.45078        4.38841       -0.61812
C         -2.30566       -3.56967       -0.22356
H         -2.56700       -3.66607        0.83199
H         -1.27647       -3.21394       -0.26305
H         -2.32513       -4.57045       -0.66092
C         -2.09172        3.86247       -0.62848
H         -1.88955        4.08648       -1.67764
H         -3.16477        3.98799       -0.47346
H         -1.58253        4.61877       -0.02674
Cl        -1.61120       -0.45870        2.43984
Pd         0.00096       -0.20393        0.90448
