105
-153.05840016
Cl         2.43251        2.99317        0.55850
Pd         0.56494        1.94469       -0.14467
P         -1.28899        0.88289       -1.09346
N         -1.20223       -0.78162       -0.66336
C         -0.22068       -1.67149       -1.07411
C         -0.03031       -2.82297       -0.27561
C          1.05303       -3.67990       -0.52512
C          1.30012       -4.84064        0.40072
C          2.76708       -5.29550        0.40212
C          3.25997       -5.51635       -1.03260
C          3.14607       -4.22995       -1.86997
C          1.91539       -3.40130       -1.58958
C          1.67746       -2.28767       -2.39236
C          0.63189       -1.43499       -2.14542
H          0.48005       -0.56240       -2.75343
H          2.35209       -2.08279       -3.20640
H          4.02735       -3.60103       -1.69436
H          4.29316       -5.89132       -1.03339
H          3.38406       -4.52582        0.88297
H          0.98200       -4.57087        1.41567
C         -0.85058       -2.85921        0.96642
C         -0.38422       -2.03723        2.02453
C         -1.24803       -1.70238        3.06362
C         -2.53696       -2.17427        3.06475
C         -3.01890       -2.98131        2.03614
C         -4.45730       -3.42888        2.08182
C         -5.01604       -3.82073        0.70463
C         -4.04644       -4.75407       -0.02938
C         -2.67642       -4.08494       -0.22872
C         -2.17710       -3.32276        0.97324
H         -1.92360       -4.83346       -0.50672
H         -4.46884       -5.07244       -0.99283
H         -5.17092       -2.91489        0.10480
H         -5.06630       -2.63097        2.52588
H         -3.20018       -1.91103        3.87128
H         -0.88974       -1.06424        3.85195
N          0.91653       -1.52028        1.92053
P          1.25559        0.07981        1.22147
C          2.86179       -0.21346        0.43908
C          3.78070       -0.93842        1.16244
C          4.99399       -1.28485        0.59507
C          5.29293       -0.91795       -0.70910
C          4.35836       -0.18215       -1.42317
C          3.14630        0.16015       -0.85459
H          2.41493        0.69701       -1.43413
H          4.58205        0.11299       -2.43416
C          6.60074       -1.28125       -1.32108
H          5.71318       -1.85156        1.16134
H          3.53702       -1.25246        2.16571
C          1.41129        1.15763        2.64822
C          0.24604        1.66913        3.16997
C          0.29640        2.50269        4.27323
C          1.51375        2.83006        4.85521
C          2.67632        2.29159        4.32002
C          2.62438        1.45811        3.21836
H          3.52800        1.05688        2.79123
H          3.62424        2.53308        4.76978
C          1.56958        3.71122        6.05435
H         -0.61201        2.90552        4.68739
H         -0.69729        1.41779        2.70882
H          1.49077       -2.05026        1.27550
H         -1.47971       -0.82914        0.30749
C         -1.42908        0.97687       -2.87666
C         -0.88268        2.01455       -3.59222
C         -0.98799        2.03340       -4.96960
C         -1.64087        1.00878       -5.64162
C         -2.20173       -0.02363       -4.90160
C         -2.09273       -0.03948       -3.52213
H         -2.50924       -0.84791       -2.94166
H         -2.72120       -0.81672       -5.41167
C         -1.77458        1.03892       -7.12446
H         -0.56538        2.84820       -5.53233
H         -0.38867        2.81329       -3.06621
C         -2.78193        1.52497       -0.33969
C         -2.94387        2.87328       -0.13219
C         -4.10115        3.34546        0.45721
C         -5.10837        2.46829        0.83758
C         -4.92393        1.10804        0.62806
C         -3.76444        0.63945        0.03679
H         -3.61993       -0.41604       -0.12825
H         -5.69211        0.41775        0.93240
C         -6.34510        2.97271        1.49614
H         -4.22829        4.40084        0.62783
H         -2.15683        3.54706       -0.42692
Cl        -0.06314        3.85102       -1.16821
H          3.16942       -4.47118       -2.94026
H          2.89842       -6.20299        1.00810
H          2.66151       -6.30864       -1.49972
H          0.65227       -5.67280        0.10100
H         -3.91992       -5.67475        0.55384
H         -2.72511       -3.39243       -1.07776
H         -4.53789       -4.27854        2.77016
H         -6.00800       -4.28446        0.80078
H          6.98516       -2.21332       -0.90441
H          6.50627       -1.41590       -2.39958
H          7.34179       -0.50101       -1.14258
H          0.73649        4.41537        6.06485
H          1.52412        3.12159        6.97097
H          2.49287        4.29195        6.07262
H         -0.92948        1.55197       -7.58562
H         -1.81339        0.02971       -7.53686
H         -2.68648        1.55916       -7.42052
H         -7.19907        2.33127        1.27384
H         -6.22133        3.00525        2.57943
H         -6.59041        3.97936        1.15478
