87
-129.18153664
P         -1.53536       -0.28084       -0.42866
P          1.72056        0.30632        0.22654
C         -1.09943        0.96916       -1.64190
C          1.52619       -0.79720       -1.19606
C          0.00055        0.74217       -2.45899
C          0.34806        1.71476       -3.41754
C         -0.42803        2.85737       -3.52672
C         -1.52044        3.05947       -2.70839
C         -1.85426        2.10968       -1.76299
C          2.15270       -2.01204       -1.04292
C          2.04543       -2.98359       -2.01918
C          1.29174       -2.73542       -3.14512
C          0.63398       -1.52895       -3.31240
C          0.75687       -0.53071       -2.32670
Cl         0.87902       -0.10653        3.38405
Cl        -1.58981       -1.91813        2.39448
H         -2.10934        3.95700       -2.80312
H         -2.70858        2.25443       -1.12292
H          2.72259       -2.20223       -0.14556
H          2.54013       -3.93288       -1.89495
H         -0.16208        3.59911       -4.26059
H          1.19395       -3.49281       -3.90436
C         -2.45010       -4.19368       -2.54680
C         -1.62334       -4.20635       -1.43174
C         -1.37627       -3.00652       -0.77648
C         -1.91660       -1.83172       -1.24419
C         -2.73060       -1.82563       -2.35246
C         -3.00282       -3.01379       -3.00510
H         -2.65930       -5.11988       -3.05434
C         -1.03988       -5.47647       -0.92166
H         -0.75986       -2.99565        0.10621
H         -3.14029       -0.89191       -2.70485
H         -3.64062       -3.01705       -3.87376
C         -5.14703        1.07097        2.00016
C         -5.21517       -0.08546        1.24907
C         -4.12173       -0.49032        0.50741
C         -2.97266        0.26512        0.51605
C         -2.90224        1.41629        1.26583
C         -3.98788        1.83434        2.02520
H         -5.99754        1.38826        2.57913
H         -6.11736       -0.67492        1.24447
H         -4.15688       -1.39796       -0.07264
H         -1.99766        1.99893        1.26156
C         -3.90768        3.08445        2.82860
C          6.04447       -0.07935        1.60324
C          5.75033        0.11395        0.26785
C          4.43387        0.23185       -0.13879
C          3.42316        0.15071        0.79127
C          3.71697       -0.03896        2.12007
C          5.03220       -0.15065        2.54992
H          7.06831       -0.17769        1.92175
H          6.54506        0.17045       -0.45785
H          4.18831        0.37592       -1.17930
H          2.91379       -0.10175        2.83209
C          5.34058       -0.38386        3.98724
C          0.82747        4.72753       -0.33575
C          1.70407        4.09457       -1.19476
C          1.98724        2.75232       -1.02495
C          1.38308        2.05447       -0.00643
C          0.54067        2.69179        0.87578
C          0.24414        4.04031        0.71960
H          0.59474        5.76965       -0.47393
H          2.15959        4.64272       -2.00309
H          2.66442        2.24124       -1.68991
H          0.14564        2.14746        1.71672
C         -0.69913        4.72591        1.64347
Pd        -0.12661       -0.51959        1.42476
C          1.52978        1.54290       -4.30680
C         -0.19931       -1.32401       -4.53018
H          2.17217        0.73048       -3.96500
H          1.21861        1.32016       -5.32816
H          2.13335        2.45139       -4.33113
H          0.42532       -1.10081       -5.39591
H         -0.78047       -2.21868       -4.75799
H         -0.90366       -0.50187       -4.39992
H         -1.68010       -5.91617       -0.15570
H         -0.92102       -6.20663       -1.72342
H         -0.05649       -5.30562       -0.48096
H         -2.96348        3.13713        3.37240
H         -3.97947        3.96358        2.18678
H         -4.71386        3.13753        3.56154
H          5.34268       -1.45082        4.21433
H          6.31905        0.01962        4.25164
H          4.60001        0.09486        4.62964
H         -1.70249        4.75786        1.21667
H         -0.75521        4.21045        2.60321
H         -0.38266        5.75177        1.83719
