171
-217.84601371
P         -1.60670        0.36462       -0.37993
P          1.59632       -0.43684       -0.25933
C         -0.85175        1.27350       -1.72880
C          0.89361       -1.43785       -1.57502
C         -0.05336        0.61310       -2.65511
C          0.57653        1.36676       -3.66418
C          0.35911        2.73355       -3.72307
C         -0.45452        3.36516       -2.80605
C         -1.05404        2.62943       -1.80258
C          1.07762       -2.79765       -1.51183
C          0.49508       -3.62239       -2.45373
C         -0.28882       -3.07478       -3.44706
C         -0.49052       -1.70679       -3.52623
C          0.12679       -0.86312       -2.58283
Cl         1.51898        0.45837        2.84769
Cl        -1.66796       -0.51815        2.84882
C         -1.36018       -1.16033       -4.60412
C          1.45037        0.71775       -4.67970
H         -0.62083        4.42802       -2.87054
H         -1.68508        3.11311       -1.07430
H          1.67659       -3.21689       -0.71945
H          0.64708       -4.68830       -2.40653
H          0.83659        3.30478       -4.50127
H         -0.76073       -3.71416       -4.17403
C         -3.95508       -3.25791       -1.71705
C         -2.96424       -3.42007       -0.75712
C         -2.25243       -2.29417       -0.36355
C         -2.51275       -1.07443       -0.93608
C         -3.48180       -0.93312       -1.89874
C         -4.23158       -2.03058       -2.30634
H         -4.54340       -4.11118       -1.99987
H         -1.49513       -2.35592        0.39846
H         -3.65238        0.04368       -2.31869
C         -4.30278        2.96279        2.18554
C         -4.87434        1.96877        1.40093
C         -4.02999        1.19948        0.61088
C         -2.67765        1.43452        0.59682
C         -2.13189        2.43014        1.36916
C         -2.93457        3.20759        2.19304
H         -4.94560        3.54821        2.81557
H         -4.42032        0.39579        0.01293
H         -1.06623        2.58450        1.35143
C          4.50301       -2.79489        2.30729
C          3.14731       -3.08666        2.40030
C          2.26972       -2.37543        1.59104
C          2.73857       -1.40640        0.73879
C          4.08045       -1.12745        0.66688
C          4.99452       -1.81992        1.44770
H          5.18642       -3.33659        2.93375
H          1.20960       -2.55510        1.63722
H          4.41979       -0.34822        0.00751
C          3.79968        3.29782       -1.53453
C          2.82878        3.39685       -0.54507
C          2.13379        2.24410       -0.20512
C          2.41659        1.05136       -0.82237
C          3.38363        0.96770       -1.79373
C          4.10026        2.09804       -2.16846
H          4.35457        4.17375       -1.81252
H          1.37622        2.26782        0.55871
H          3.58288        0.00928       -2.24238
Pd        -0.07293       -0.04909        1.33638
C         -3.94614       -5.20769        0.69267
C         -2.71478       -4.80032       -0.13517
C         -1.48127       -4.78752        0.78803
C         -2.47235       -5.83415       -1.25114
H         -4.13687       -4.47971        1.48103
H         -4.83759       -5.26607        0.06895
H         -3.79845       -6.18135        1.15952
H         -0.59112       -4.47303        0.24384
H         -1.62871       -4.11277        1.63100
H         -1.29009       -5.78137        1.19249
H         -3.34568       -5.94094       -1.89309
H         -1.63227       -5.53500       -1.87669
H         -2.24809       -6.81475       -0.83171
C         -6.71368       -2.15299       -2.58536
C         -5.38148       -1.90790       -3.31654
C         -5.21126       -2.95193       -4.43708
C         -5.42284       -0.50786       -3.95977
H         -7.55743       -2.06371       -3.26937
H         -6.74251       -3.14912       -2.14481
H         -6.85155       -1.42939       -1.78261
H         -5.24450       -3.96760       -4.04541
H         -6.00518       -2.85872       -5.17796
H         -4.25901       -2.82198       -4.94914
H         -5.60928        0.26340       -3.21278
H         -4.48403       -0.28039       -4.46411
H         -6.22044       -0.44570       -4.69996
C         -6.78112        1.29346        2.87813
C         -6.38890        1.72299        1.45294
C         -6.81768        0.61402        0.47139
C         -7.13158        3.01806        1.07543
H         -6.24679        0.38854        3.16690
H         -6.54120        2.06897        3.60464
H         -7.84999        1.09144        2.94517
H         -7.89644        0.46232        0.50551
H         -6.55285        0.87534       -0.55302
H         -6.34454       -0.33578        0.72017
H         -8.21054        2.86416        1.08056
H         -6.90779        3.82300        1.77436
H         -6.84279        3.35007        0.07834
C         -1.26069        3.56162        4.02218
C         -2.28169        4.25862        3.10172
C         -3.32081        4.97895        3.98183
C         -1.56524        5.30679        2.23308
H         -1.74759        2.79574        4.62533
H         -0.47195        3.07764        3.44776
H         -0.79021        4.27652        4.69674
H         -3.84598        4.27324        4.62519
H         -2.83858        5.71532        4.62466
H         -4.05496        5.50490        3.37179
H         -1.09859        6.07447        2.85009
H         -0.78635        4.84548        1.62972
H         -2.26762        5.79461        1.55749
C          1.12891       -4.31213        3.34701
C          2.65817       -4.13498        3.40945
C          3.03652       -3.68055        4.83096
C          3.31824       -5.49102        3.10014
H          0.79489       -5.05902        4.06698
H          0.61461       -3.37920        3.57749
H          0.81846       -4.64534        2.35774
H          2.68224       -4.39258        5.57608
H          4.11615       -3.58887        4.94334
H          2.59359       -2.70978        5.05299
H          2.97065       -6.25999        3.78987
H          3.07821       -5.81299        2.08692
H          4.40269       -5.43351        3.18518
C          7.34409       -2.33592        2.28107
C          6.48441       -1.46438        1.34601
C          6.67803        0.01326        1.73604
C          6.96071       -1.68243       -0.10237
H          7.05648       -2.19518        3.32280
H          7.24428       -3.39264        2.03372
H          8.39847       -2.07438        2.19226
H          6.12926        0.67513        1.06685
H          6.32053        0.19314        2.74966
H          7.73020        0.29397        1.69310
H          8.02114       -1.45217       -0.20361
H          6.80890       -2.71806       -0.40588
H          6.41470       -1.04683       -0.79831
C          2.33699        4.50323        1.66632
C          2.49244        4.72518        0.14778
C          1.17672        5.26485       -0.43446
C          3.60147        5.77345       -0.06892
H          3.23900        4.05693        2.08428
H          2.15751        5.44677        2.18139
H          1.50125        3.84400        1.89393
H          0.37274        4.54136       -0.30761
H          0.88131        6.19309        0.05423
H          1.28138        5.46207       -1.50106
H          4.56592        5.39556        0.27019
H          3.68767        6.04844       -1.11969
H          3.38568        6.68507        0.48824
C          6.57041        2.35063       -2.46821
C          5.24565        2.04072       -3.18933
C          5.00452        3.08081       -4.29977
C          5.36028        0.64850       -3.84084
H          7.41150        2.30681       -3.15988
H          6.55378        3.34513       -2.02356
H          6.75151        1.63115       -1.66976
H          4.99471        4.09443       -3.90135
H          5.78757        3.03086       -5.05620
H          4.04891        2.90704       -4.79274
H          4.43749        0.37494       -4.35063
H          6.16256        0.63194       -4.57840
H          5.58322       -0.11664       -3.09777
H         -2.27898       -1.74060       -4.68871
H          2.29678        1.35716       -4.93115
H         -0.85325       -1.19383       -5.56945
H         -1.64344       -0.12596       -4.40518
H          0.89830        0.52033       -5.59946
H          1.84845       -0.22979       -4.31403
