171
-217.84365763
P         -1.64251        0.41590       -0.39059
P          1.59394       -0.35854       -0.38237
C         -0.91943        1.40647       -1.70264
C          0.89448       -1.28922       -1.74394
C         -0.08944        0.82603       -2.65579
C          0.55970        1.66167       -3.58550
C          0.32455        3.02596       -3.55092
C         -0.52825        3.57768       -2.61875
C         -1.14204        2.76216       -1.68885
C          1.12738       -2.64096       -1.80536
C          0.57218       -3.39347       -2.82176
C         -0.22953       -2.78328       -3.76334
C         -0.47537       -1.42060       -3.71730
C          0.11176       -0.64916       -2.69696
Cl         1.55778        0.52147        2.80382
Cl        -1.60086       -0.38407        2.81101
C         -1.32336       -0.78332       -4.76125
C          1.51120        1.11585       -4.59255
H         -0.70714        4.64043       -2.60739
H         -1.79777        3.18715       -0.94648
H          1.74853       -3.10785       -1.05780
H          0.76436       -4.45247       -2.87753
H          0.82405        3.65897       -4.26497
H         -0.67147       -3.36817       -4.55228
C         -3.86579       -3.33393       -1.59800
C         -2.84903       -3.42285       -0.65458
C         -2.15304       -2.26308       -0.34150
C         -2.47997       -1.06991       -0.93615
C         -3.49525       -0.99554       -1.85803
C         -4.21362       -2.13314       -2.20731
H         -4.40834       -4.22245       -1.85641
H         -1.35704       -2.28456        0.38283
H         -3.74051       -0.03959       -2.28999
C         -4.33807        2.76347        2.40481
C         -4.87977        1.70881        1.68072
C         -4.04460        1.02313        0.80723
C         -2.73110        1.39474        0.65973
C         -2.21515        2.44352        1.38050
C         -3.00788        3.14464        2.27894
H         -4.97116        3.28579        3.09698
H         -4.40633        0.17662        0.25137
H         -1.17554        2.69913        1.26271
C          4.20920       -2.92093        2.30158
C          2.84189       -3.16803        2.26618
C          2.06641       -2.40230        1.40609
C          2.63555       -1.41293        0.64262
C          3.98614       -1.17470        0.70017
C          4.80498       -1.93465        1.52533
H          4.83164       -3.49858        2.95868
H          1.00260       -2.56089        1.35295
H          4.39510       -0.37616        0.10797
C          3.97377        3.24994       -1.69964
C          2.93870        3.42698       -0.79028
C          2.21688        2.30538       -0.40224
C          2.51333        1.07434       -0.93095
C          3.52673        0.91767       -1.84443
C          4.28662        2.01091       -2.24451
H          4.56680        4.10150       -1.97778
H          1.42322        2.37903        0.32079
H          3.72280       -0.06747       -2.23266
Pd        -0.01803        0.04910        1.26517
C         -1.12057       -5.22179       -0.51084
C         -2.47425       -4.74230        0.03598
C         -3.52742       -5.83826       -0.21855
C         -2.37230       -4.52088        1.55878
H         -0.34915       -4.47059       -0.34883
H         -0.80461       -6.14488       -0.02524
H         -1.18472       -5.40827       -1.58250
H         -3.27622       -6.74887        0.32528
H         -4.51450       -5.51512        0.11187
H         -3.58296       -6.09558       -1.27596
H         -2.14751       -5.45438        2.07435
H         -1.58702       -3.81006        1.81017
H         -3.31104       -4.13420        1.95466
C         -6.43845       -1.05603       -2.62258
C         -5.38542       -2.02164       -3.19555
C         -6.06002       -3.38566       -3.44040
C         -4.87583       -1.48646       -4.54465
H         -6.80572       -1.41658       -1.66211
H         -6.02192       -0.06054       -2.47349
H         -7.29069       -0.96318       -3.29551
H         -6.46519       -3.79542       -2.51533
H         -6.88551       -3.28713       -4.14531
H         -5.35414       -4.10314       -3.85851
H         -4.14163       -2.16775       -4.97278
H         -5.69385       -1.38524       -5.25772
H         -4.40993       -0.50836       -4.43255
C         -6.51189        0.80449        3.34924
C         -6.34322        1.30127        1.90228
C         -6.76854        0.17337        0.94276
C         -7.25946        2.51481        1.65672
H         -5.85604       -0.04429        3.54228
H         -6.26471        1.58679        4.06603
H         -7.53810        0.48947        3.53744
H         -6.17486       -0.72650        1.10284
H         -7.81462       -0.09191        1.09517
H         -6.65375        0.48587       -0.09446
H         -8.30777        2.24174        1.77648
H         -7.04630        3.32334        2.35471
H         -7.12468        2.89991        0.64610
C         -2.03553        5.44507        2.14534
C         -2.39080        4.28855        3.09530
C         -1.11808        3.78241        3.80354
C         -3.36324        4.81264        4.16952
H         -1.34587        5.11622        1.36999
H         -2.92941        5.82747        1.65290
H         -1.56815        6.26758        2.68643
H         -1.34744        2.92934        4.44169
H         -0.35962        3.46687        3.08905
H         -0.68079        4.56286        4.42578
H         -2.89603        5.59815        4.76339
H         -4.26052        5.23443        3.71728
H         -3.66019        4.01470        4.84995
C          1.47824       -5.27114        2.28686
C          2.15993       -4.20845        3.16566
C          1.10442       -3.50214        4.03904
C          3.16893       -4.91238        4.09279
H          0.99245       -6.03195        2.89759
H          0.71982       -4.82106        1.64985
H          2.20578       -5.76563        1.64352
H          1.56693       -2.72566        4.64782
H          0.33489       -3.02960        3.43008
H          0.61275       -4.20898        4.70695
H          2.66600       -5.64032        4.72932
H          3.92543       -5.44543        3.51719
H          3.66933       -4.19542        4.74343
C          6.77644       -0.58860        0.64383
C          6.31744       -1.68924        1.62102
C          7.06954       -2.98796        1.27606
C          6.66752       -1.24858        3.05372
H          6.29645        0.36332        0.87037
H          7.85376       -0.43703        0.70929
H          6.54263       -0.85839       -0.38590
H          6.82414       -3.78703        1.97449
H          6.80991       -3.32772        0.27357
H          8.14806       -2.83504        1.31177
H          7.73409       -1.04659        3.15073
H          6.12555       -0.34109        3.31930
H          6.40566       -2.01810        3.77900
C          3.84504        5.27378        0.63621
C          2.64861        4.82089       -0.21877
C          1.38579        4.81456        0.66308
C          2.42654        5.81564       -1.37368
H          3.66567        6.25780        1.06898
H          4.02166        4.57254        1.45164
H          4.75565        5.33003        0.04063
H          1.16506        5.81612        1.03187
H          0.52175        4.46877        0.09661
H          1.51484        4.16644        1.52942
H          2.17767        6.80589       -0.99254
H          3.31716        5.91325       -1.99296
H          1.60901        5.48544       -2.01348
C          5.35284        2.88355       -4.35450
C          5.48231        1.87319       -3.19818
C          5.56705        0.45631       -3.79896
C          6.77750        2.15364       -2.41500
H          6.18269        2.78112       -5.05361
H          4.42826        2.72631       -4.90805
H          5.35433        3.90993       -3.99029
H          5.72558       -0.29186       -3.02264
H          4.65514        0.20458       -4.33986
H          6.39900        0.38229       -4.49918
H          6.77653        3.16201       -2.00227
H          6.88600        1.45452       -1.58649
H          7.65227        2.05457       -3.05744
H         -0.71045       -0.36184       -5.55860
H          1.11739        1.22719       -5.60382
H         -1.92667        0.02140       -4.33860
H         -2.00047       -1.50769       -5.21420
H          1.71595        0.05815       -4.42268
H          2.46311        1.64451       -4.54458
