111
-148.55681408
P         -2.66283        1.80083        0.67644
P          0.20192        0.48531        0.46349
C         -1.71035        1.47630        2.18536
C         -0.43422        0.96499        2.08353
C         -3.67352        3.34419        0.82033
C         -3.01723        4.51462        0.12119
C         -2.24973        1.73854        3.42864
H         -3.25465        2.11985        3.50475
C         -1.50343        1.49490        4.56873
H         -1.92392        1.69926        5.53985
C         -0.22226        0.98844        4.46392
H          0.35769        0.79609        5.35155
C          0.31175        0.71752        3.21727
H          1.30290        0.30432        3.12034
Pd        -1.13508        1.63700       -1.04512
Cl        -2.69511        2.48453       -2.41667
Cl         0.36872        1.23598       -2.66380
C         -5.02750        2.91116        0.22903
C         -3.99421        0.56433        0.31916
H         -2.88841        4.31031       -0.94226
H         -3.61960        5.42160        0.21056
H         -2.02825        4.72116        0.53707
H         -5.02590        3.12629       -0.84857
H         -5.84315        3.51788        0.65132
H         -3.84529        0.25241       -0.72340
C         -5.28653        1.39347        0.45362
C         -3.91385       -0.62376        1.25291
H         -3.77845        3.54965        1.89307
H         -5.70124        1.23963        1.45930
H         -6.05414        1.02013       -0.24106
H         -2.96428       -1.14994        1.14234
H         -3.99139       -0.30433        2.29379
H         -4.71879       -1.33738        1.06247
C         -1.42591       -3.68600       -0.35779
C         -1.08787       -2.83675       -1.44204
C         -0.57723       -1.58387       -1.15502
C         -0.35214       -1.18728        0.13606
C         -0.56873       -2.04641        1.18096
C         -1.06307       -3.32179        0.96465
O         -2.16803       -4.87414       -0.59109
C         -1.32399       -3.22474       -2.90914
H         -0.36395       -0.88151       -1.94123
H         -0.37071       -1.69637        2.17894
C         -1.23800       -4.26402        2.16518
C          4.73873        0.63196        0.11911
C          4.11300       -0.41853        0.83812
C          2.72947       -0.43583        0.90052
C          1.98395        0.57860        0.35872
C          2.58797        1.65207       -0.24071
C          3.96694        1.72536       -0.35090
O          6.12951        0.57047       -0.16265
C          4.90314       -1.54571        1.52163
H          2.20998       -1.25766        1.36292
H          1.96019        2.42534       -0.64840
C          4.59792        2.95684       -1.01925
C         -1.17405       -4.74278       -3.11422
C         -2.72865       -2.76698       -3.33132
C         -0.28612       -2.53987       -3.82773
C         -0.14857       -3.99364        3.22818
C         -2.61621       -4.02654        2.80112
C         -1.09443       -5.73734        1.74265
C         -3.57733       -4.69526       -0.52104
H         -1.28031       -5.00861       -4.16565
H         -0.19508       -5.08058       -2.77589
H         -1.92756       -5.29468       -2.55794
H         -2.83292       -1.68829       -3.21528
H         -2.92322       -3.01476       -4.37440
H         -3.49658       -3.24043       -2.72415
H         -0.43327       -1.46174       -3.87019
H          0.72782       -2.73401       -3.47916
H         -0.36682       -2.91304       -4.84834
H          0.84501       -4.03323        2.78240
H         -0.27460       -3.01949        3.69822
H         -0.18923       -4.73911        4.02204
H         -3.41649       -4.21253        2.08857
H         -2.76881       -4.68204        3.65810
H         -2.71038       -2.99640        3.14403
H         -1.87971       -6.03035        1.05047
H         -0.13670       -5.90348        1.25055
H         -1.15207       -6.40010        2.60573
H         -3.98861       -5.32721        0.26587
H         -3.81889       -3.65226       -0.31259
H         -4.03068       -4.99038       -1.46723
C          6.44583       -0.10699       -1.37250
C          6.27245       -1.04425        2.01506
C          4.14269       -2.06795        2.76248
C          5.08718       -2.70902        0.53542
C          3.72162        4.21023       -0.79519
C          5.98265        3.26598       -0.42187
C          4.71464        2.70696       -2.53065
H          6.80500       -1.82659        2.55528
H          6.90244       -0.72960        1.18697
H          6.15065       -0.19281        2.68381
H          3.22749       -2.58910        2.48570
H          4.75510       -2.77429        3.32252
H          3.88211       -1.24778        3.43099
H          5.63474       -3.52991        0.99779
H          4.12109       -3.09074        0.20581
H          5.63689       -2.39416       -0.34826
H          3.50817        4.34988        0.26421
H          4.22811        5.10544       -1.15529
H          2.77600        4.14194       -1.33091
H          6.68642        2.45961       -0.61207
H          6.40072        4.17577       -0.85196
H          5.91344        3.40128        0.65695
H          5.14231        3.57131       -3.03792
H          3.73431        2.51091       -2.96448
H          5.34636        1.84736       -2.74068
H          5.53536       -0.45064       -1.86514
H          6.98717        0.56578       -2.03744
H          7.08776       -0.96101       -1.15724
