111
-148.54913721
P         -1.69700        2.81414        0.13398
P         -0.50083       -0.13729        0.51676
C         -1.63221        2.04959        1.78448
C         -1.19151        0.74883        1.92924
C         -0.54297        4.24591       -0.00870
C          0.46263        4.00052       -1.11371
C         -1.98275        2.77835        2.90308
H         -2.26925        3.81108        2.79718
C         -1.92779        2.19368        4.15651
H         -2.20687        2.76372        5.02763
C         -1.50767        0.88496        4.29393
H         -1.45887        0.43169        5.27032
C         -1.12552        0.16452        3.17671
H         -0.75397       -0.84423        3.26895
Pd        -1.29339        1.04575       -1.29174
Cl        -2.43043        2.11766       -2.89904
Cl        -0.77089       -0.76718       -2.52077
C         -1.49169        5.43447       -0.27261
C         -3.30288        3.61857       -0.32790
H          1.05799        3.10477       -0.92057
H         -0.04621        3.85599       -2.06908
H          1.14893        4.84326       -1.22685
H         -0.99085        6.16479       -0.92484
H         -1.69310        5.96806        0.66802
H         -3.74506        2.98938       -1.11204
C         -2.83883        4.97432       -0.90042
C         -4.26607        3.74354        0.83334
H         -0.04055        4.34466        0.96283
H         -3.62134        5.73012       -0.73838
H         -2.72226        4.89658       -1.99159
H         -3.87920        4.43084        1.58619
H         -5.23325        4.13436        0.50880
H         -4.43698        2.77796        1.31440
C         -0.88729       -4.66969        0.58721
C          0.25638       -4.05137        1.15439
C          0.34338       -2.66954        1.11149
C         -0.67941       -1.91303        0.60160
C         -1.83314       -2.49930        0.15273
C         -1.98457       -3.87638        0.16444
O         -0.91718       -6.07840        0.40794
C          1.41125       -4.85480        1.77294
H          1.22603       -2.16144        1.46036
H         -2.60996       -1.86134       -0.23294
C         -3.30836       -4.48498       -0.32380
C          3.78154        1.27391       -0.12647
C          3.25517        0.23066       -0.93051
C          1.94909       -0.17127       -0.70909
C          1.20935        0.35944        0.31343
C          1.74356        1.30212        1.15247
C          3.04142        1.75392        0.98443
O          5.03051        1.86599       -0.45370
C          4.05162       -0.43508       -2.06283
H          1.47033       -0.87865       -1.36346
H          1.12326        1.69578        1.93785
C          3.61844        2.76904        1.98376
C          2.44571       -5.17907        0.68451
C          2.10838       -4.03951        2.88584
C          0.89881       -6.15290        2.42294
C         -4.48851       -3.53109       -0.02972
C         -3.23020       -4.71323       -1.84109
C         -3.61375       -5.80927        0.39946
C         -0.39824       -6.51403       -0.84256
H          2.83949       -4.26385        0.24371
H          3.28259       -5.74253        1.09633
H          2.00543       -5.76838       -0.11605
H          1.38355       -3.68367        3.61759
H          2.84177       -4.65086        3.41123
H          2.64058       -3.17916        2.48267
H          1.70807       -6.68965        2.91739
H          0.13330       -5.93336        3.16643
H          0.46401       -6.82197        1.68466
H         -4.50166       -3.24344        1.02124
H         -4.43610       -2.62624       -0.63321
H         -5.43989       -4.01145       -0.25717
H         -4.16179       -5.13067       -2.22217
H         -3.04199       -3.77457       -2.36182
H         -2.42548       -5.39847       -2.09602
H         -3.62691       -5.66248        1.47892
H         -4.58349       -6.20528        0.09901
H         -2.86651       -6.56623        0.17548
H         -0.06186       -5.66057       -1.43269
H          0.43760       -7.19310       -0.67510
H         -1.16967       -7.05402       -1.39124
C          4.93509        2.96062       -1.35685
C          3.79273        0.32124       -3.37477
C          5.55808       -0.45888       -1.74746
C          3.60912       -1.90524       -2.24503
C          2.94791        2.61591        3.36820
C          5.12761        2.54224        2.18555
C          3.36166        4.19567        1.47566
H          2.73153        0.30875       -3.62264
H          4.10106        1.36118       -3.29837
H          4.33809       -0.13264       -4.20173
H          6.11231       -0.98744       -2.52267
H          5.96653        0.54597       -1.67904
H          5.74282       -0.95920       -0.79742
H          3.66161       -2.44407       -1.29963
H          2.59123       -1.97776       -2.62483
H          4.25354       -2.41776       -2.95886
H          3.00087        1.58358        3.71309
H          3.44387        3.24213        4.10945
H          1.90151        2.91735        3.34460
H          5.32213        1.52037        2.50945
H          5.68004        2.71109        1.26436
H          5.52848        3.21941        2.93934
H          3.82528        4.36030        0.50648
H          3.76178        4.93465        2.16938
H          2.29375        4.37985        1.36813
H          3.89089        3.17266       -1.59008
H          5.39546        3.84193       -0.91042
H          5.47168        2.72692       -2.27607
