59
-75.79769355
Cl         1.36881        0.42423        2.43258
P          1.46362        0.02354       -0.76166
P         -1.72592       -0.18794       -0.83138
C          0.50291        0.42938       -2.28980
H          0.22431        1.48494       -2.25575
H          1.15693        0.29278       -3.15671
C         -0.71976       -0.44095       -2.35770
H         -0.44008       -1.49521       -2.41719
H         -1.34303       -0.21928       -3.22954
C          2.41048       -1.53157       -1.08977
H          1.92856       -1.98646       -1.96591
C          2.87032        1.19666       -0.48003
H          2.80089        1.50441        0.57110
C         -2.99032       -1.50927       -0.54237
H         -3.02695       -1.65537        0.54438
C         -2.84681        1.27836       -1.03914
H         -2.72964        1.60234       -2.08032
C          3.80897       -0.99804       -1.45518
H          4.56803       -1.76214       -1.23221
H          3.86878       -0.83440       -2.54179
C          4.13081        0.33469       -0.72041
H          4.86488        0.91211       -1.29907
H          4.62768        0.12254        0.23676
C         -4.28787       -0.84598       -1.03271
H         -4.41315       -1.06084       -2.10318
H         -5.16043       -1.29752       -0.53586
C         -4.25321        0.68968       -0.80975
H         -4.56227        0.91102        0.22109
H         -4.99010        1.19597       -1.45142
C          2.38209       -2.51320        0.08382
H          2.75338       -3.49069       -0.25526
H          1.33767       -2.68631        0.37404
C          2.77310        2.42684       -1.37549
H          2.87601        2.11163       -2.42219
H          1.76268        2.84950       -1.29695
C         -2.66019       -2.82740       -1.23220
H         -3.53389       -3.49141       -1.17370
H         -2.51278       -2.64111       -2.30383
C         -2.51921        2.42968       -0.09162
H         -3.33841        3.16131       -0.12876
H         -2.52129        2.04982        0.93803
C          3.17810       -2.06917        1.30081
H          4.24740       -2.02595        1.08825
H          3.04539       -2.74772        2.14664
H          2.87507       -1.07598        1.63002
C          3.80034        3.49880       -1.03827
H          3.69760        4.37890       -1.67725
H          4.82074        3.13043       -1.15418
H          3.69545        3.83115       -0.00372
C         -1.44351       -3.51701       -0.63632
H         -1.59763       -3.74688        0.41972
H         -0.56131       -2.88017       -0.69720
H         -1.20902       -4.45360       -1.14726
C         -1.20006        3.12195       -0.39453
H         -1.01864        3.96651        0.27415
H         -0.35780        2.43951       -0.28353
H         -1.17827        3.50231       -1.41748
Cl        -1.89281        0.06796        2.32632
Pd        -0.18144       -0.01960        0.87615
