111
-148.55282341
P         -2.11700        2.28466        1.37486
P          0.07013        0.14994        0.55771
C         -1.10711        1.50379        2.65627
C         -0.17624        0.55362        2.29878
C         -2.02448        4.12761        1.47740
C         -1.18122        4.68505        0.35119
C         -1.27528        1.84278        3.98326
H         -1.99644        2.59775        4.25182
C         -0.51809        1.21163        4.95507
H         -0.64894        1.47341        5.99236
C          0.39950        0.24235        4.59725
H          0.98373       -0.25444        5.35426
C          0.56980       -0.08906        3.26482
H          1.27653       -0.84926        2.97045
Pd        -1.56837        1.29094       -0.63532
Cl        -3.14278        2.60115       -1.55151
Cl        -1.05282        0.08496       -2.45707
C         -3.50397        4.55346        1.44347
C         -3.93937        2.03561        1.60860
H         -1.60397        4.41431       -0.61812
H         -1.12605        5.77537        0.39497
H         -0.16242        4.29092        0.38542
H         -3.78309        4.77234        0.40357
H         -3.64466        5.49712        1.99215
H         -4.33059        1.75920        0.62033
C         -4.43404        3.43976        2.00295
C         -4.24426        0.95302        2.62249
H         -1.57842        4.36059        2.45320
H         -4.46916        3.50812        3.09886
H         -5.47096        3.58841        1.66534
H         -5.32045        0.80018        2.73115
H         -3.79445        0.00059        2.33530
H         -3.84954        1.21608        3.60475
C         -1.07224       -4.18145       -0.24224
C         -2.04603       -3.25178        0.21105
C         -1.63675       -1.95727        0.48604
C         -0.34843       -1.55802        0.24538
C          0.56364       -2.41608       -0.31019
C          0.22355       -3.72577       -0.60478
O         -1.37001       -5.56826       -0.26419
C         -3.53952       -3.58080        0.37398
H         -2.33008       -1.23650        0.88588
H          1.55277       -2.04745       -0.52024
C          1.26188       -4.59448       -1.33483
C          4.26346        1.05095       -0.99546
C          4.00489        1.14720        0.39581
C          2.72591        0.86810        0.84785
C          1.71410        0.56931       -0.02760
C          1.93852        0.58404       -1.37913
C          3.18901        0.86297       -1.90115
O          5.59935        1.10503       -1.47478
C          5.09818        1.51171        1.41243
H          2.50530        0.87311        1.89963
H          1.10843        0.36659       -2.02732
C          3.35988        0.93903       -3.42664
C         -3.88744       -3.65487        1.86962
C         -4.38222       -2.46781       -0.28912
C         -3.92496       -4.90379       -0.31008
C          1.90487       -3.77690       -2.47769
C          2.35923       -5.02205       -0.34697
C          0.62791       -5.84178       -1.97463
C         -1.08348       -6.21185        0.96590
H         -3.65609       -2.71550        2.37073
H         -4.94809       -3.85949        2.01302
H         -3.32366       -4.44299        2.36533
H         -4.26020       -1.51065        0.21467
H         -4.09311       -2.33719       -1.33156
H         -5.44312       -2.71490       -0.26221
H         -3.62114       -4.89753       -1.35630
H         -3.44338       -5.75146        0.17164
H         -5.00133       -5.06884       -0.26875
H          2.56839       -4.40009       -3.07672
H          1.13898       -3.36938       -3.13706
H          2.49865       -2.94832       -2.09566
H          3.12391       -5.61531       -0.84778
H          2.84470       -4.15223        0.09475
H          1.94823       -5.62071        0.46348
H          0.23910       -6.51821       -1.21694
H         -0.19805       -5.56063       -2.62705
H          1.35724       -6.39399       -2.56679
H         -0.02298       -6.12346        1.19544
H         -1.65641       -5.75293        1.77017
H         -1.34877       -7.26654        0.88998
C          6.22640       -0.16689       -1.58192
C          4.48596        2.20818        2.64912
C          5.81035        0.23140        1.87421
C          6.11540        2.49292        0.80182
C          2.06635        1.46401       -4.09148
C          4.48782        1.91330       -3.81195
C          3.65876       -0.46330       -3.97742
H          5.26839        2.58236        3.30900
H          3.86707        3.05412        2.35105
H          3.87411        1.52441        3.23575
H          6.28187       -0.28022        1.03865
H          6.58259        0.45754        2.60906
H          5.10228       -0.46038        2.33000
H          6.65228        2.04115       -0.02876
H          5.61243        3.38468        0.42932
H          6.85338        2.80315        1.54115
H          2.22265        1.64261       -5.15498
H          1.24856        0.75037       -4.00488
H          1.75040        2.40258       -3.63703
H          4.56261        2.01836       -4.89400
H          4.30408        2.89963       -3.38725
H          5.45227        1.56853       -3.44788
H          2.83495       -1.14316       -3.76327
H          4.55795       -0.88039       -3.53002
H          3.79995       -0.43659       -5.05757
H          5.55798       -0.95224       -1.22651
H          6.49216       -0.35916       -2.62116
H          7.14148       -0.17269       -0.98985
