59
-75.79774962
Cl         1.54588        0.74884        2.37991
P          1.57146        0.12123       -0.81422
P         -1.56738       -0.27896       -0.76156
C          0.57979        0.25372       -2.36628
H          0.23347        1.28349       -2.46896
H          1.22696        0.03458       -3.22126
C         -0.59199       -0.68114       -2.27776
H         -0.24600       -1.71349       -2.20348
H         -1.24857       -0.61335       -3.15077
C          2.67582       -1.37190       -0.84165
H          2.47327       -1.91180       -1.77503
C          2.83936        1.45910       -0.55625
H          2.49697        2.07103        0.28765
C         -2.84414       -1.54230       -0.27352
H         -2.50354       -1.99945        0.66397
C         -2.66027        1.19732       -1.03782
H         -2.45573        1.57077       -2.04896
C          4.08694       -0.75091       -0.84968
H          4.79522       -1.42658       -0.34816
H          4.44984       -0.65665       -1.88390
C          4.09337        0.64617       -0.17508
H          5.00137        1.20479       -0.44585
H          4.13767        0.52089        0.91714
C         -4.09239       -0.66743       -0.03857
H         -5.00421       -1.25761       -0.21196
H         -4.13644       -0.35798        1.01635
C         -4.07600        0.59477       -0.94046
H         -4.77849        1.35122       -0.56094
H         -4.44083        0.32916       -1.94374
C          2.44149       -2.29189        0.35574
H          2.43549       -1.68324        1.26956
H          3.30389       -2.96416        0.46553
C          3.06192        2.34627       -1.78552
H          4.07047        2.77939       -1.73092
H          3.07363        1.71323       -2.68203
C         -3.07437       -2.62940       -1.32836
H         -4.08412       -3.04242       -1.19580
H         -3.08742       -2.16248       -2.32153
C         -2.41655        2.30439       -0.01324
H         -3.27301        2.99300       -0.01852
H         -2.41440        1.85902        0.99015
C          1.16888       -3.11703        0.25319
H          1.02054       -3.75218        1.12948
H          1.19254       -3.76759       -0.62304
H          0.28752       -2.48306        0.16027
C          2.04886        3.47171       -1.93010
H          1.03633        3.09309       -2.05483
H          2.26355        4.10586       -2.79343
H          2.04423        4.11323       -1.04671
C         -2.06542       -3.76665       -1.27743
H         -2.28478       -4.54043       -2.01683
H         -2.06022       -4.24482       -0.29597
H         -1.05197       -3.41934       -1.46840
C         -1.13700        3.08905       -0.25315
H         -0.26185        2.43992       -0.24225
H         -1.15838        3.58660       -1.22449
H         -0.97958        3.85838        0.50620
Cl        -1.61449       -0.18897        2.41974
Pd         0.01666        0.05300        0.89920
