87
-129.18619457
P         -1.70287       -0.39839       -0.13180
P          1.60205        0.35901       -0.16919
C         -1.44225        0.91638       -1.34555
C          1.36061       -0.67731       -1.61665
C         -0.47003        0.85536       -2.34208
C         -0.26255        1.98403       -3.15845
C         -1.04479        3.11061       -2.97298
C         -2.01095        3.14949       -1.99202
C         -2.19960        2.05130       -1.17655
C          2.16309       -1.77789       -1.79231
C          1.98793       -2.59510       -2.89147
C          1.00390       -2.30092       -3.81148
C          0.18239       -1.19723       -3.65227
C          0.36519       -0.36069       -2.53317
Cl         1.23023        1.18967        2.91830
Cl        -1.39103       -0.71222        3.06616
H         -2.60806        4.03587       -1.85329
H         -2.94199        2.08266       -0.39637
H          2.93253       -1.99735       -1.07094
H          2.61501       -3.46106       -3.02662
H         -0.88273        3.96857       -3.60326
H          0.86057       -2.93816       -4.66758
C         -0.96935       -4.62045       -1.64248
C         -0.37101       -4.20216       -0.46173
C         -0.62966       -2.91426       -0.01023
C         -1.44860       -2.07196       -0.72668
C         -2.05581       -2.50151       -1.88294
C         -1.81545       -3.78294       -2.34316
H         -0.76613       -5.61175       -2.01019
C          0.56779       -5.08565        0.28157
H         -0.19917       -2.57625        0.91640
H         -2.69577       -1.82677       -2.42914
H         -2.27721       -4.12225       -3.25583
C         -5.78919        0.05625        1.82548
C         -5.57747       -0.94146        0.89464
C         -4.33424       -1.08445        0.30762
C         -3.31402       -0.22861        0.65213
C         -3.52382        0.76670        1.57869
C         -4.76362        0.91859        2.18743
H         -6.75723        0.17094        2.28269
H         -6.37988       -1.60887        0.62598
H         -4.15416       -1.86207       -0.41636
H         -2.71298        1.42293        1.84947
C         -4.98487        2.00333        3.18200
C          5.00559       -1.28496        2.37481
C          5.11157       -0.02332        1.82303
C          4.08345        0.47948        1.04815
C          2.96141       -0.28356        0.82666
C          2.85174       -1.53848        1.38013
C          3.87101       -2.05743        2.16819
H          5.80664       -1.67957        2.97636
H          5.99353        0.57068        1.99836
H          4.14821        1.46632        0.62010
H          1.96743       -2.12554        1.19958
C          3.75217       -3.42437        2.74459
C          2.27787        4.68094       -1.38246
C          3.05332        3.68130       -1.93682
C          2.85638        2.36587       -1.55906
C          1.89399        2.06671       -0.62370
C          1.12738        3.06020       -0.06093
C          1.29884        4.38475       -0.44388
H          2.42782        5.70556       -1.67722
H          3.80653        3.92434       -2.66824
H          3.43904        1.56948       -1.99508
H          0.38527        2.80780        0.67762
C          0.46855        5.45832        0.16600
Pd        -0.05576        0.08321        1.44785
C          0.78414        1.99598       -4.21833
C         -0.87321       -0.92080       -4.66574
H          1.51610        1.20199       -4.06682
H          0.34001        1.86268       -5.20544
H          1.32513        2.94329       -4.21900
H         -0.43555       -0.53491       -5.58722
H         -1.42384       -1.82993       -4.91151
H         -1.59454       -0.18799       -4.30244
H          1.59841       -4.89571       -0.02202
H          0.49755       -4.91557        1.35695
H          0.35000       -6.13848        0.09706
H         -4.10380        2.14126        3.81053
H         -5.19462        2.95033        2.68275
H         -5.82609        1.77379        3.83745
H          2.72927       -3.62379        3.06767
H          4.02626       -4.18086        2.00786
H          4.40273       -3.54628        3.61168
H          0.36413        6.30860       -0.50943
H         -0.53378        5.09410        0.39666
H          0.91831        5.81594        1.09321
