59
-75.79895466
Cl         1.69887        0.46898        2.36037
P          1.60666        0.06179       -0.86570
P         -1.55375       -0.22491       -0.74751
C          0.60662       -0.05017       -2.41528
H          0.30224        0.96289       -2.69099
H          1.24097       -0.43285       -3.22091
C         -0.60057       -0.91144       -2.17342
H         -0.30917       -1.93626       -1.93306
H         -1.26010       -0.95615       -3.04560
C          2.91575       -1.24947       -0.78049
H          2.93879       -1.72166       -1.76999
C          2.66699        1.57814       -0.78200
H          2.57249        1.95735        0.24308
C         -2.99250       -1.29353       -0.29128
H         -3.10946       -1.20625        0.79567
C         -2.46539        1.28386       -1.32256
H         -2.24724        1.33991       -2.39742
C          4.20616       -0.44468       -0.53090
H          4.42036       -0.45059        0.54682
H          5.06596       -0.94357       -1.00334
C          4.08191        1.02376       -1.01788
H          4.30814        1.07443       -2.09196
H          4.83119        1.66366       -0.52713
C         -4.16834       -0.60700       -1.00775
H         -4.26691       -1.03498       -2.01503
H         -5.11563       -0.83467       -0.49532
C         -3.95046        0.92775       -1.11284
H         -4.31553        1.40405       -0.19539
H         -4.56261        1.35430       -1.92167
C          2.64846       -2.29614        0.29777
H          2.52688       -1.78574        1.26209
H          3.54574       -2.91986        0.41465
C          2.24075        2.65067       -1.77726
H          2.32444        2.24454       -2.79383
H          1.17397        2.86910       -1.63821
C         -2.77243       -2.75094       -0.67634
H         -2.63931       -2.81556       -1.76418
H         -1.82241       -3.09623       -0.24625
C         -1.98531        2.55734       -0.62514
H         -0.90052        2.64259       -0.77314
H         -2.41580        3.43123       -1.13393
C          1.44304       -3.17749        0.01369
H          0.52298       -2.59438       -0.01299
H          1.31193       -3.94923        0.77567
H          1.53800       -3.67978       -0.95079
C          3.05235        3.93161       -1.65370
H          2.96638        4.35656       -0.65182
H          2.72506        4.69458       -2.36375
H          4.11297        3.74913       -1.83549
C         -3.90700       -3.66076       -0.22952
H         -3.72691       -4.70380       -0.49969
H         -4.85516       -3.36455       -0.68177
H         -4.04028       -3.61995        0.85318
C         -2.29866        2.63335        0.86371
H         -1.97996        1.73190        1.38557
H         -1.79948        3.47938        1.34195
H         -3.36691        2.74969        1.05147
Cl        -1.46915       -0.35451        2.44493
Pd         0.09317       -0.00378        0.87074
