105
-153.07078668
Cl         0.34912        2.95280        2.61249
Pd        -0.16089        1.77895        0.74965
P         -0.74756        0.51512       -1.15938
N          0.36813       -0.75393       -1.64712
C          0.53416       -2.12496       -1.41368
C          0.01169       -2.82386       -0.29309
C          0.38946       -4.16499       -0.07025
C         -0.01151       -4.84055        1.22050
C          0.88558       -6.03173        1.58572
C          1.01516       -6.98363        0.39289
C          1.62973       -6.26801       -0.82205
C          1.19619       -4.83116       -0.99599
C          1.66659       -4.13829       -2.10411
C          1.36172       -2.81627       -2.29721
H          1.76306       -2.28656       -3.14393
H          2.30316       -4.65028       -2.80599
H          2.72337       -6.28829       -0.74258
H          1.60516       -7.87013        0.66509
H          1.88017       -5.66401        1.86760
H         -0.00505       -4.10065        2.03080
C         -0.74431       -2.10798        0.76152
C         -0.02996       -1.20814        1.58791
C         -0.70437       -0.55955        2.62143
C         -2.03216       -0.81056        2.85395
C         -2.74453       -1.71847        2.07710
C         -4.18868       -1.98374        2.44027
C         -4.93490       -2.97409        1.52399
C         -3.99087       -4.03274        0.94285
C         -2.85986       -3.34709        0.16637
C         -2.09955       -2.36988        1.02283
H         -2.18161       -4.08238       -0.28030
H         -4.53397       -4.74612        0.30705
H         -5.40412       -2.42533        0.69864
H         -4.71980       -1.02394        2.46802
H         -2.53945       -0.30334        3.65702
H         -0.16700        0.14922        3.22603
N          1.32787       -0.98104        1.34570
P          1.87445        0.67408        1.09282
C          2.69378        0.84484       -0.49093
C          2.39717        1.92631       -1.28726
C          2.88727        1.98144       -2.57822
C          3.68187        0.95913       -3.07686
C          3.98790       -0.11336       -2.25044
C          3.49936       -0.16786       -0.95737
H          3.71606       -1.01305       -0.32360
H          4.59829       -0.91448       -2.63113
C          4.15739        0.99115       -4.48741
H          2.63552        2.81232       -3.21517
H          1.76260        2.71317       -0.91147
C          2.86529        1.30589        2.43656
C          2.85834        0.63337        3.63416
C          3.59523        1.12077        4.69891
C          4.34457        2.28233        4.56418
C          4.32828        2.95160        3.34721
C          3.59062        2.46269        2.28396
H          3.57033        2.98132        1.33851
H          4.89241        3.86219        3.23917
C          5.11425        2.82619        5.71714
H          3.58858        0.60318        5.64287
H          2.27566       -0.26927        3.72743
H          1.74472       -1.53213        0.60880
H          1.18914       -0.24729       -1.95756
C         -0.63909        1.75426       -2.45739
C         -1.04642        3.04847       -2.23918
C         -0.93753        3.98623       -3.24786
C         -0.43298        3.63040       -4.49134
C         -0.03656        2.31633       -4.69895
C         -0.14632        1.38114       -3.68565
H          0.15860        0.35996       -3.84657
H          0.36406        2.03100       -5.65666
C         -0.28270        4.64676       -5.56920
H         -1.24420        5.00356       -3.07431
H         -1.45432        3.31691       -1.27920
C         -2.41914       -0.11499       -1.28281
C         -2.66670       -0.99014       -2.31446
C         -3.95474       -1.44430       -2.54177
C         -5.00119       -1.02863       -1.73006
C         -4.73408       -0.13142       -0.70429
C         -3.44924        0.32862       -0.48923
H         -3.25073        1.06309        0.27144
H         -5.54139        0.21640       -0.08275
C         -6.38428       -1.52179       -1.97728
H         -4.15310       -2.12963       -3.34798
H         -1.84781       -1.31085       -2.93956
Cl        -2.14762        2.83849        0.80067
H          1.39511       -6.81689       -1.74300
H          0.50204       -6.55891        2.47076
H          0.02071       -7.36426        0.12740
H         -1.04880       -5.18282        1.14213
H         -3.56266       -4.62607        1.76023
H         -3.28528       -2.80433       -0.68163
H         -4.21271       -2.35635        3.47148
H         -5.76603       -3.45085        2.06214
H          5.11504        0.47941       -4.59223
H          3.43968        0.50242       -5.14787
H          4.28984        2.01663       -4.83511
H          4.50334        3.51895        6.29741
H          5.44288        2.02750        6.38358
H          6.00267        3.36190        5.37984
H          0.70093        5.11624       -5.52388
H         -0.39472        4.19412       -6.55542
H         -1.03490        5.43159       -5.47832
H         -6.79371       -1.08573       -2.88947
H         -6.39680       -2.60720       -2.08709
H         -7.05201       -1.26391       -1.15411
