64
-97.21869570
Cl        -1.52625       -0.87453       -2.69263
Cl         1.63075       -1.09757       -2.95458
P          1.92397       -0.68072        0.30985
C          2.08215       -2.34941        1.09709
C          3.72308       -0.30063        0.03349
P         -1.27484       -0.17830        0.44344
C          1.25065        0.56810        1.46434
C         -0.17453        0.82456        1.50898
C         -0.40988        1.94215        2.41065
C          0.88402        2.40617        2.87957
C          1.91040        1.55055        2.30963
H         -1.38300        2.34552        2.69682
H          1.05349        3.23054        3.57590
Pd         0.19202       -0.89727       -1.24951
H          2.98646        1.63251        2.47445
C         -5.08458        1.94645       -0.89508
C         -4.09836        2.66874       -0.25364
C         -2.94039        2.03673        0.15945
C         -2.76676        0.69113       -0.07313
C         -3.75282       -0.03146       -0.70555
C         -4.91425        0.59521       -1.12078
H         -5.98755        2.43740       -1.21970
H         -4.22938        3.72358       -0.07579
H         -2.16738        2.59320        0.65905
H         -3.60600       -1.08552       -0.87989
H         -5.68189        0.02908       -1.62231
C         -2.52369       -4.01196        2.53275
C         -2.39290       -2.84310        3.25749
C         -2.01885       -1.67441        2.61830
C         -1.77629       -1.68769        1.26435
C         -1.91334       -2.84630        0.53534
C         -2.28685       -4.01578        1.17180
H         -2.81470       -4.92287        3.03003
H         -2.58061       -2.84043        4.31865
H         -1.90742       -0.75279        3.16754
H         -1.73860       -2.82621       -0.52862
H         -2.39450       -4.92646        0.60578
C          4.11845       -0.36759       -1.42526
H          3.89977        0.70710        0.43178
C          4.43120       -1.36838        0.89068
H          4.61258       -0.97740        1.90259
C          3.58552       -2.66618        0.98372
H          5.42515       -1.58155        0.47094
C          1.58570       -2.30513        2.52603
H          1.48003       -3.04629        0.49804
H          3.90044       -3.27433        1.84399
H          3.77255       -3.28797        0.09616
H          1.67117       -3.27991        3.01202
H          2.16592       -1.58892        3.11126
H          0.54071       -1.99481        2.57476
H          5.18819       -0.19224       -1.55825
H          3.89131       -1.35220       -1.83711
H          3.58377        0.36936       -2.02600
Fe         0.79676        2.44496        0.82525
C          1.34032        2.20487       -1.16027
C          2.19682        3.15661       -0.48009
C          1.36821        4.24630        0.00905
C         -0.00971        3.94975       -0.34273
C         -0.02396        2.67805       -1.04389
H          1.65401        1.31291       -1.70489
H          3.28534        3.09830       -0.40695
H          1.72070        5.13676        0.53445
H         -0.87583        4.58291       -0.13804
H         -0.89641        2.19377       -1.48730
