111
-148.55289798
P         -2.64815        1.83242        0.64434
P          0.21886        0.49997        0.44427
C         -1.68530        1.51591        2.15364
C         -0.41240        0.99663        2.05645
C         -3.80005        3.26154        0.91371
C         -3.61933        4.34629       -0.12441
C         -2.22092        1.78426        3.39799
H         -3.22523        2.16633        3.47638
C         -1.47447        1.54309        4.53855
H         -1.89348        1.75351        5.50903
C         -0.19584        1.03035        4.43563
H          0.38408        0.83925        5.32354
C          0.33445        0.75012        3.18958
H          1.32241        0.32878        3.09217
Pd        -1.09419        1.66482       -1.07098
Cl        -2.55767        2.65045       -2.44687
Cl         0.44097        1.23268       -2.65349
C         -5.19146        2.59405        0.88226
C         -3.86419        0.49149        0.25808
H         -2.58413        4.69289       -0.16202
H         -3.87983        3.97488       -1.11603
H         -4.25900        5.20824        0.07926
H         -5.92658        3.29853        0.46658
H         -5.53031        2.38517        1.90762
H         -3.53795        0.02322       -0.68096
C         -5.18098        1.27065        0.06585
C         -3.91372       -0.53194        1.37159
H         -3.57565        3.66218        1.91104
H         -6.03095        0.63264        0.34916
H         -5.32429        1.50125       -1.00021
H         -2.93609       -0.99064        1.53109
H         -4.21334       -0.06421        2.31128
H         -4.62882       -1.32880        1.15382
C         -1.44142       -3.66342       -0.35737
C         -1.10813       -2.81691       -1.44521
C         -0.59062       -1.56556       -1.16380
C         -0.35582       -1.16778        0.12514
C         -0.56725       -2.02510        1.17267
C         -1.06721       -3.29907        0.96180
O         -2.18845       -4.84975       -0.58388
C         -1.35398       -3.20808       -2.90984
H         -0.37430       -0.86757       -1.95300
H         -0.35704       -1.67570        2.16840
C         -1.22881       -4.24280        2.16319
C          4.75791        0.57272        0.10243
C          4.10990       -0.50122        0.76895
C          2.72639       -0.49133        0.83224
C          2.00204        0.56569        0.34576
C          2.62926        1.66405       -0.18030
C          4.00981        1.71659       -0.28463
O          6.12856        0.46663       -0.24742
C          4.84878       -1.67273        1.43795
H          2.19385       -1.32726        1.25411
H          2.02217        2.47970       -0.53510
C          4.64018        3.01334       -0.81997
C         -1.20723       -4.72685       -3.11205
C         -2.76085       -2.75001       -3.32404
C         -0.32115       -2.52681       -3.83673
C         -0.12854       -3.97229        3.21501
C         -2.60054       -4.00894        2.81427
C         -1.08766       -5.71529        1.73688
C         -3.59644       -4.66760       -0.49936
H         -1.95791       -5.27634       -2.54957
H         -1.32062       -4.99520       -4.16209
H         -0.22652       -5.06506       -2.77919
H         -3.52507       -3.22010       -2.70960
H         -2.86286       -1.67074       -3.21151
H         -2.96302       -3.00160       -4.36477
H          0.69473       -2.72083       -3.49378
H         -0.40834       -2.90290       -4.85573
H         -0.46764       -1.44867       -3.88136
H         -0.15915       -4.71944        4.00774
H          0.86043       -4.00855        2.75867
H         -0.25187       -2.99938        3.68836
H         -2.69068       -2.98154        3.16609
H         -3.40793       -4.18914        2.10830
H         -2.74519       -4.67061        3.66788
H         -1.88030       -6.00841        1.05314
H         -0.13527       -5.87921        1.23380
H         -1.13459       -6.37946        2.59954
H         -4.00102       -5.29832        0.29200
H         -3.83329       -3.62385       -0.28902
H         -4.05997       -4.96213       -1.44078
C          6.32617       -0.14279       -1.51247
C          6.35055       -1.39188        1.61882
C          4.26141       -1.91027        2.84723
C          4.66025       -2.94485        0.59478
C          3.99482        4.22782       -0.11653
C          6.15224        3.08825       -0.54547
C          4.38553        3.11505       -2.33320
H          6.50449       -0.45693        2.15644
H          6.83495       -2.19087        2.17966
H          6.85539       -1.31136        0.65914
H          4.81603       -2.68687        3.37331
H          4.31157       -0.99925        3.44294
H          3.22092       -2.22800        2.80483
H          5.15595       -3.79685        1.05933
H          3.60360       -3.18876        0.48830
H          5.07391       -2.81996       -0.40402
H          2.93715        4.32065       -0.35699
H          4.08885        4.13989        0.96547
H          4.47858        5.15538       -0.42163
H          6.69148        2.31983       -1.09414
H          6.55877        4.05361       -0.84611
H          6.35765        2.94772        0.51515
H          4.84391        2.28429       -2.86600
H          4.79623        4.04030       -2.73636
H          3.31793        3.09841       -2.55029
H          7.39448       -0.19607       -1.72317
H          5.90836       -1.14811       -1.51283
H          5.83450        0.44054       -2.28918
