100
-131.97920335
C         -1.58526        3.82602       -1.46461
C         -2.33779        2.56888       -1.51371
C         -0.19767        3.52615       -1.52487
C         -0.01861        2.05204       -1.60784
C          1.14228        1.45045       -2.32291
C         -1.40659        1.47944       -1.58307
C         -1.83071        0.07687       -1.98667
C         -0.89754       -0.63928       -2.94062
Cl         0.93445       -0.46064        2.82886
Cl        -1.82367       -1.92317        2.24602
C          3.24255        0.40290       -3.85018
C          2.51420        1.47408       -4.32923
C          2.93907       -0.13545       -2.60804
C          1.49005        1.99431       -3.57863
C          1.90083        0.35824       -1.85398
H         -3.42317        2.48342       -1.58382
H          0.60765        4.25977       -1.60581
H          0.02191       -0.92946       -2.43282
H         -1.34758       -1.55124       -3.34013
H         -0.62937       -0.00365       -3.78801
H          4.05530       -0.00197       -4.43075
H          2.75199        1.90156       -5.28987
H          3.54957       -0.93577       -2.22443
H          0.91676        2.82459       -3.95368
H         -2.02151        4.82804       -1.46099
P          1.74300       -0.29682       -0.17676
H         -2.81114        0.17210       -2.46839
P         -2.14091       -0.96543       -0.49981
H         -3.46119       -2.98472       -0.34171
C         -1.68682       -3.69091       -1.32405
C         -2.74625       -2.61628       -1.07757
C         -1.23424       -4.33450       -0.01092
H         -3.40237        0.90691        0.33209
C         -4.95722       -0.55730        0.06100
C         -3.52557       -0.16927        0.43884
H         -5.04298       -1.65455        0.14883
C         -5.94903        0.06900        1.04697
H          3.59276       -1.81802       -0.40934
H          2.51504        0.76520        1.85796
C          3.48614        3.27450        1.21755
C          2.66138        2.30409        0.35277
C          2.83894        0.85184        0.81563
C          4.32806        0.47295        0.74536
C          5.18925        1.43140        1.59427
C          4.97859        2.89792        1.17160
H          3.13001        3.22898        2.25418
H          3.33074        4.31412        0.89675
H          2.99685        2.38101       -0.68884
H          1.60128        2.57703        0.33295
H          4.48467       -0.56397        1.06634
H          4.65268        0.51173       -0.30126
H          4.91981        1.31718        2.65170
H          6.25165        1.15688        1.53173
H          5.35791        3.04011        0.15180
H          5.57132        3.57535        1.80257
C          2.66245       -4.30505       -1.08200
C          1.90749       -2.96029       -1.06846
C          2.55518       -1.97447       -0.09335
C          2.58378       -2.57529        1.32059
C          3.36434       -3.90360        1.33304
C          2.75239       -4.90690        0.33535
H          3.67438       -4.14802       -1.47540
H          2.18390       -5.01040       -1.77580
H          0.87854       -3.12416       -0.74085
H          1.83360       -2.52894       -2.07570
H          2.99149       -1.85852        2.04509
H          1.55568       -2.76280        1.65034
H          4.41019       -3.71254        1.06258
H          3.39517       -4.32745        2.34654
H          1.74936       -5.18954        0.67709
H          3.32979       -5.84218        0.32308
H         -0.82479       -3.19823       -1.80371
C         -2.20771       -4.76225       -2.28720
H         -3.36342       -0.40029        1.49180
C         -5.31419       -0.16567       -1.37303
H         -3.31134       -2.42892       -1.99201
H         -0.83940       -3.60005        0.68998
H         -0.46722       -5.09119       -0.18013
H         -2.07268       -4.82797        0.48126
H         -1.45164       -5.52417       -2.48359
H         -3.07976       -5.26431       -1.86701
H         -2.50548       -4.33153       -3.24461
H         -6.97635       -0.22211        0.82239
H         -5.73340       -0.22743        2.07474
H         -5.89820        1.15741        1.00209
H         -5.19304        0.90726       -1.52171
H         -4.69131       -0.67789       -2.10505
H         -6.35263       -0.41015       -1.60270
Fe        -1.04429        2.64380        0.11507
C         -2.46690        3.01930        1.57823
C         -1.64930        4.20028        1.37647
C         -0.26606        3.82960        1.61001
C         -0.23315        2.43697        2.01062
C         -1.58848        1.93176        1.96390
H         -3.55647        2.97625        1.51220
H         -2.01220        5.19614        1.11313
H          0.58953        4.50828        1.57829
H          0.63446        1.87317        2.35298
H         -1.88830        0.93056        2.27809
Pd        -0.26707       -0.89609        0.95642
