111
-148.55499412
P         -2.76609        1.72121       -0.18065
P          0.18156        0.63917        0.14551
C         -1.80715        2.17056        1.28876
C         -0.49700        1.75566        1.39552
C         -3.85675        3.10993       -0.73476
C         -3.26067        3.86121       -1.90509
C         -2.37610        2.92884        2.29210
H         -3.40630        3.23443        2.21111
C         -1.62523        3.27867        3.40089
H         -2.06820        3.87065        4.18511
C         -0.30981        2.86947        3.50338
H          0.27502        3.14050        4.36696
C          0.25358        2.10190        2.50044
H          1.27428        1.76484        2.57680
Pd        -1.23665        0.88766       -1.69133
Cl        -2.84014        0.90414       -3.25774
Cl         0.34650       -0.04593       -2.97921
C         -5.18508        2.39169       -1.03457
C         -4.03076        0.39562        0.09046
H         -3.90986        4.67889       -2.22665
H         -2.28494        4.28189       -1.65081
H         -3.11868        3.19971       -2.76045
H         -5.19276        2.09284       -2.09197
H         -6.03206        3.08474       -0.91625
H         -3.86242       -0.34861       -0.69960
C         -5.36503        1.13214       -0.13932
C         -3.89277       -0.23302        1.45981
H         -3.97449        3.77738        0.12821
H         -5.77416        1.43307        0.83489
H         -6.11002        0.44731       -0.57196
H         -2.91689       -0.70588        1.58065
H         -3.99067        0.52024        2.24367
H         -4.65910       -0.99271        1.63026
C         -1.23574       -3.53909        1.27028
C         -0.92274       -3.24111       -0.08023
C         -0.47292       -1.96820       -0.37975
C         -0.28741       -1.03041        0.60069
C         -0.47854       -1.34865        1.91941
C         -0.90757       -2.61152        2.29276
O         -1.91972       -4.74158        1.59118
C         -1.12696       -4.24520       -1.22422
H         -0.27933       -1.67733       -1.39699
H         -0.31247       -0.58440        2.65840
C         -1.04989       -2.93627        3.78747
C          4.72224        0.93833       -0.10299
C          3.93338        1.36463       -1.20228
C          2.55468        1.29695       -1.08621
C          1.96435        0.74592        0.02056
C          2.72632        0.21867        1.03118
C          4.10946        0.27696        0.99125
O          6.11916        1.19506       -0.08292
C          4.54715        1.88761       -2.51116
H          1.91797        1.65715       -1.87500
H          2.21992       -0.24750        1.85872
C          4.92135       -0.34308        2.13919
C         -2.54778       -4.08471       -1.78687
C         -0.11461       -3.98713       -2.36381
C         -0.90436       -5.68997       -0.74270
C         -0.83796       -4.43753        4.05459
C          0.01888       -2.17962        4.60883
C         -2.44192       -2.50310        4.27203
C         -3.33639       -4.61480        1.59189
H         -2.70382       -3.07054       -2.15439
H         -2.72094       -4.77361       -2.61312
H         -3.29808       -4.27891       -1.02409
H         -0.16862       -4.77468       -3.11499
H         -0.31245       -3.04590       -2.87450
H          0.90430       -3.96078       -1.97864
H          0.08654       -5.79931       -0.30324
H         -1.63580       -5.97462        0.00949
H         -0.98934       -6.39576       -1.56859
H         -0.87104       -4.65436        5.12200
H         -1.60512       -5.03884        3.57346
H          0.12916       -4.76221        3.67214
H         -0.15098       -1.10406        4.60128
H          0.00330       -2.49847        5.65079
H          1.01647       -2.37193        4.21490
H         -2.57341       -2.72561        5.33061
H         -2.58239       -1.43136        4.13346
H         -3.22787       -3.01404        3.72058
H         -3.76668       -5.32236        0.88327
H         -3.72520       -4.84595        2.58340
H         -3.62806       -3.60098        1.31491
C          6.46898        2.46442        0.45407
C          3.63541        1.54471       -3.71210
C          4.70048        3.41365       -2.43017
C          5.91183        1.22992       -2.78644
C          4.14528       -1.50812        2.79500
C          6.25169       -0.92082        1.62344
C          5.18795        0.72735        3.20837
H          3.39518        0.48192       -3.72494
H          2.70203        2.10461       -3.68420
H          4.12637        1.78874       -4.65381
H          5.34981        3.70196       -1.60699
H          5.12620        3.81239       -3.35062
H          3.73331        3.89003       -2.27153
H          6.63986        1.48983       -2.02224
H          5.81778        0.14460       -2.80209
H          6.31459        1.54954       -3.74721
H          3.82376       -2.23138        2.04599
H          4.77076       -2.03102        3.51816
H          3.26615       -1.15378        3.33133
H          6.07281       -1.65039        0.83434
H          6.89151       -0.14074        1.21797
H          6.80134       -1.41462        2.42439
H          5.75139        0.31297        4.04402
H          4.25082        1.12549        3.59695
H          5.75660        1.55908        2.79994
H          5.57693        2.99539        0.78872
H          7.14883        2.32884        1.29511
H          6.98127        3.05556       -0.30468
