105
-153.06935196
Cl         0.28891        2.88701        2.68589
Pd        -0.15725        1.77411        0.77501
P         -0.74439        0.52843       -1.15299
N          0.37250       -0.74335       -1.63422
C          0.52917       -2.11756       -1.41323
C          0.00473       -2.82138       -0.29672
C          0.37243       -4.16734       -0.08638
C         -0.02871       -4.85085        1.20000
C          0.86763       -6.04553        1.55518
C          0.98698       -6.99267        0.35748
C          1.59464       -6.27365       -0.85911
C          1.17121       -4.83214       -1.02000
C          1.64414       -4.13359       -2.12351
C          1.34927       -2.80761       -2.30460
H          1.75265       -2.27388       -3.14783
H          2.27488       -4.64459       -2.83134
H          2.68884       -6.30306       -0.79093
H          1.57688       -7.88156        0.62198
H          1.86493       -5.68127        1.83192
H         -0.02084       -4.11693        2.01569
C         -0.73974       -2.10707        0.76708
C         -0.01410       -1.21640        1.59387
C         -0.67718       -0.57222        2.63752
C         -2.00490       -0.81631        2.87746
C         -2.72874       -1.71314        2.09843
C         -4.17251       -1.97074        2.46880
C         -4.93059       -2.95334        1.55369
C         -3.99610       -4.01261        0.95835
C         -2.86796       -3.32716        0.17756
C         -2.09500       -2.36144        1.03553
H         -2.19789       -4.06242       -0.28130
H         -4.54745       -4.71924        0.32211
H         -5.40534       -2.39852        0.73554
H         -4.69737       -1.00770        2.50293
H         -2.50321       -0.31179        3.68782
H         -0.13128        0.12908        3.24316
N          1.34195       -0.99007        1.33962
P          1.87923        0.66795        1.08741
C          2.69754        0.85358       -0.49463
C          2.39624        1.94103       -1.28093
C          2.88505        2.00954       -2.57178
C          3.68253        0.99445       -3.08033
C          3.99251       -0.08476       -2.26405
C          3.50555       -0.15252       -0.97099
H          3.72473       -1.00302       -0.34522
H          4.60493       -0.88053       -2.65260
C          4.15607        1.04183       -4.49114
H          2.62932        2.84485       -3.20128
H          1.75805        2.72153       -0.89798
C          2.85532        1.31377        2.43511
C          2.87615        0.62437        3.62291
C          3.60193        1.12031        4.69133
C          4.30199        2.31403        4.57397
C          4.27297        2.99021        3.36105
C          3.54659        2.49266        2.29404
H          3.51104        3.01994        1.35386
H          4.82021        3.91165        3.25836
C          5.10059        2.84010        5.71551
H          3.62664        0.58308        5.62394
H          2.32561       -0.29932        3.70483
H          1.74876       -1.53448        0.59222
H          1.19435       -0.23965       -1.94693
C         -0.62395        1.75935       -2.45882
C         -1.00491        3.06379       -2.25465
C         -0.87901        3.98851       -3.27319
C         -0.37157        3.61258       -4.50945
C         -0.01861        2.28503       -4.70918
C         -0.14510        1.36317       -3.68560
H          0.13468        0.33342       -3.83797
H          0.35957        1.97807       -5.66931
C         -0.25105        4.60398       -5.61387
H         -1.17695        5.01078       -3.11409
H         -1.40958        3.35040       -1.29912
C         -2.41440       -0.10688       -1.28222
C         -2.65488       -0.97622       -2.32061
C         -3.93906       -1.43909       -2.55224
C         -4.98941       -1.03773       -1.73850
C         -4.72946       -0.14849       -0.70396
C         -3.44843        0.31999       -0.48444
H         -3.25673        1.04666        0.28518
H         -5.53930        0.18618       -0.07851
C         -6.36691       -1.54552       -1.98736
H         -4.13124       -2.12081       -3.36301
H         -1.83317       -1.28693       -2.94703
Cl        -2.14004        2.83498        0.71994
H          1.34646       -6.81470       -1.78112
H          0.48851       -6.57519        2.44063
H         -0.01013       -7.37015        0.09755
H         -1.06634       -5.19169        1.11974
H         -3.56439       -4.61326        1.76851
H         -3.29761       -2.77462       -0.66191
H         -4.19287       -2.34664        3.49890
H         -5.75869       -3.42981        2.09675
H          5.10362        0.51393       -4.60717
H          3.42787        0.57851       -5.15843
H          4.30732        2.07063       -4.82100
H          5.14235        3.93002        5.69708
H          4.66548        2.54260        6.67059
H          6.12352        2.46297        5.67919
H         -1.16910        4.64225       -6.20179
H         -0.05809        5.60478       -5.22492
H          0.56903        4.34685       -6.28585
H         -6.75586       -1.16377       -2.93229
H         -6.37684       -2.63549       -2.03428
H         -7.05303       -1.24081       -1.19594
