111
-148.54755651
P         -2.46982        2.20619       -0.34507
P         -0.03838        0.37798        0.47848
C         -1.88609        2.21620        1.36928
C         -0.81370        1.42665        1.72113
C         -2.63676        3.94169       -0.96766
C         -1.64945        4.22636       -2.07817
C         -2.48557        3.02488        2.31379
H         -3.30791        3.65956        2.02719
C         -2.01956        3.02393        3.61709
H         -2.48853        3.65307        4.35596
C         -0.95372        2.21918        3.97100
H         -0.59192        2.21664        4.98605
C         -0.34804        1.41843        3.01921
H          0.48443        0.78513        3.28067
Pd        -1.19061        0.68092       -1.51602
Cl        -2.04693        1.34814       -3.47371
Cl         0.12429       -0.89548       -2.42924
C         -4.11926        4.03728       -1.39138
C         -4.20187        1.60344       -0.59524
H         -0.62303        4.03272       -1.75703
H         -1.84886        3.59277       -2.94295
H         -1.71002        5.26484       -2.41234
H         -4.19684        4.63187       -2.31294
H         -4.68968        4.59547       -0.63468
H         -4.12772        0.60703       -1.05193
C         -4.76525        2.63661       -1.59219
C         -4.96533        1.53828        0.71044
H         -2.43234        4.59322       -0.10698
H         -5.85882        2.69327       -1.48739
H         -4.58067        2.29618       -2.62203
H         -4.44348        0.92537        1.44874
H         -5.08379        2.53554        1.13696
H         -5.96594        1.12266        0.56945
C         -1.14120       -3.98317        1.17836
C          0.20171       -3.64921        0.86792
C          0.52148       -2.31377        0.69451
C         -0.44232       -1.34234        0.76150
C         -1.76141       -1.66931        0.94367
C         -2.15091       -2.98870        1.11109
O         -1.46383       -5.30325        1.59110
C          1.30574       -4.70941        0.73493
H          1.53418       -2.01400        0.49310
H         -2.48700       -0.87369        0.94660
C         -3.64800       -3.31801        1.21901
C          4.42164        1.17040       -0.04761
C          3.50747        1.53061       -1.06974
C          2.15858        1.30811       -0.85081
C          1.71716        0.68116        0.28525
C          2.60667        0.23779        1.22979
C          3.96958        0.43334        1.07655
O          5.78085        1.57350       -0.13495
C          3.95211        2.15654       -2.40122
H          1.42923        1.61839       -1.57857
H          2.21996       -0.27229        2.09459
C          4.93301       -0.13349        2.13167
C          0.73945       -6.02763        0.17658
C          2.40047       -4.23645       -0.24875
C          1.94826       -4.95061        2.10902
C         -4.09316       -3.18195        2.68267
C         -4.47778       -2.34386        0.35272
C         -3.94832       -4.73700        0.70231
C         -1.40784       -5.49642        2.99868
H          0.01561       -6.46778        0.85825
H          0.24024       -5.85686       -0.77663
H          1.53151       -6.75927        0.01920
H          2.96562       -3.39528        0.14919
H          3.11430       -5.03557       -0.44708
H          1.96199       -3.93517       -1.19977
H          2.75445       -5.68055        2.04054
H          2.36261       -4.02565        2.50900
H          1.21852       -5.32272        2.82425
H         -3.92115       -2.16861        3.04499
H         -5.15466       -3.40343        2.79036
H         -3.53984       -3.86182        3.32673
H         -4.45287       -1.33209        0.75150
H         -4.10234       -2.31884       -0.67002
H         -5.52353       -2.64849        0.31906
H         -3.58938       -4.85647       -0.31939
H         -3.46570       -5.49383        1.31531
H         -5.01901       -4.93947        0.71201
H         -0.72860       -6.31796        3.22615
H         -1.06000       -4.58883        3.49364
H         -2.39718       -5.75730        3.37380
C          6.04501        2.84967        0.43394
C          3.96507        3.68653       -2.26680
C          5.34470        1.64705       -2.81471
C          2.97623        1.76890       -3.53685
C          4.34809       -1.40898        2.77954
C          6.27743       -0.53290        1.49634
C          5.15733        0.91605        3.23048
H          2.97501        4.05842       -2.00381
H          4.65611        4.00851       -1.49147
H          4.26527        4.15795       -3.20226
H          6.10621        1.94888       -2.10000
H          5.35306        0.55909       -2.87204
H          5.63283        2.04061       -3.78914
H          2.00115        2.23675       -3.40970
H          3.36042        2.09065       -4.50444
H          2.83483        0.68908       -3.57485
H          4.07090       -2.13655        2.01777
H          5.07856       -1.87793        3.43843
H          3.46862       -1.18966        3.38303
H          6.93547       -0.99712        2.23048
H          6.12186       -1.24180        0.68374
H          6.79676        0.33147        1.09002
H          4.21425        1.18174        3.70758
H          5.58974        1.82670        2.82295
H          5.83065        0.53855        3.99965
H          5.12993        3.28216        0.84045
H          6.78404        2.74938        1.22867
H          6.45347        3.51262       -0.32857
