111
-148.55256779
P         -2.56575        1.98261        1.08419
P          0.12325        0.44197        0.46867
C         -1.45515        1.53460        2.44745
C         -0.25137        0.92695        2.16370
C         -3.45160        3.57042        1.43892
C         -2.80712        4.76045        0.76259
C         -1.79863        1.79635        3.75887
H         -2.75005        2.24960        3.98222
C         -0.92802        1.45831        4.78068
H         -1.19622        1.66296        5.80433
C          0.28226        0.85800        4.49145
H          0.95873        0.59266        5.28717
C          0.61934        0.58630        3.17793
H          1.55023        0.09821        2.93530
Pd        -1.35378        1.64118       -0.86049
Cl        -2.73325        3.04772       -1.92048
Cl        -0.06306        1.08994       -2.61647
C         -4.88751        3.25488        0.98425
C         -4.01309        0.84586        0.86852
H         -1.76430        4.87278        1.06801
H         -2.81993        4.64852       -0.32128
H         -3.33276        5.68781        1.00135
H         -4.98599        3.51549       -0.07873
H         -5.60898        3.89459        1.51532
H         -4.01775        0.55763       -0.19128
C         -5.22233        1.74843        1.18358
C         -3.88900       -0.37338        1.75618
H         -3.42695        3.69855        2.52829
H         -5.52789        1.57813        2.22496
H         -6.08867        1.45540        0.57154
H         -3.81488       -0.08219        2.80564
H         -4.75387       -1.03288        1.65350
H         -2.99456       -0.95017        1.51244
C         -1.22728       -3.86775       -0.15564
C         -1.03096       -3.37541        1.15991
C         -0.60464       -2.06733        1.31399
C         -0.44120       -1.24376        0.23133
C         -0.72163       -1.68760       -1.03277
C         -1.15982       -2.97998       -1.25956
O         -1.45349       -5.25353       -0.36924
C         -1.24034       -4.24470        2.40945
H         -0.38706       -1.67305        2.29056
H         -0.58055       -1.00124       -1.84851
C         -1.53011       -3.39857       -2.69071
C          4.53618        0.63418       -0.62162
C          4.00904       -0.51898        0.01429
C          2.65858       -0.53747        0.31988
C          1.86544        0.55578        0.08806
C          2.39221        1.71227       -0.42269
C          3.73370        1.79623       -0.75855
O          5.85157        0.61102       -1.15682
C          4.86070       -1.75646        0.33783
H          2.19881       -1.42118        0.72835
H          1.72992        2.54590       -0.58074
C          4.28104        3.12051       -1.31329
C         -2.36706       -5.26999        2.18814
C          0.07303       -4.96452        2.75148
C         -1.65484       -3.37538        3.61897
C         -0.27610       -3.92166       -3.40718
C         -2.63032       -4.47522       -2.68822
C         -2.08463       -2.19146       -3.48245
C         -0.26593       -6.00795       -0.57691
H         -2.55773       -5.84450        3.09426
H         -3.29142       -4.76843        1.90345
H         -2.11341       -5.97434        1.39980
H          0.87019       -4.24449        2.93566
H         -0.03962       -5.57956        3.64394
H          0.39244       -5.61008        1.93692
H         -0.84603       -2.72271        3.94417
H         -2.51844       -2.75734        3.37543
H         -1.92187       -4.00074        4.47055
H         -0.50587       -4.21778       -4.43036
H          0.49525       -3.15263       -3.44320
H          0.14101       -4.78422       -2.89286
H         -2.28865       -5.39132       -2.21318
H         -3.50791       -4.12519       -2.14570
H         -2.93647       -4.72511       -3.70375
H         -2.89755       -1.71133       -2.93828
H         -1.31487       -1.44574       -3.67486
H         -2.47109       -2.50814       -4.45080
H          0.61134       -5.36301       -0.51151
H         -0.19646       -6.79368        0.17522
H         -0.29804       -6.47913       -1.55909
C          5.91984        0.15520       -2.50233
C          4.81182       -2.73061       -0.84917
C          6.31716       -1.36454        0.64567
C          4.31516       -2.47990        1.59085
C          3.51062        4.32138       -0.71862
C          5.76267        3.31146       -0.94157
C          4.10971        3.13692       -2.84001
H          5.39880       -3.62556       -0.64437
H          3.78628       -3.03848       -1.05255
H          5.20400       -2.27093       -1.75316
H          6.79975       -0.91761       -0.21977
H          6.35581       -0.64143        1.45966
H          6.90418       -2.23520        0.93699
H          4.98902       -3.27847        1.90043
H          4.21294       -1.78621        2.42503
H          3.34445       -2.93676        1.40353
H          3.97805        5.26230       -1.00808
H          2.48109        4.35512       -1.07175
H          3.49969        4.27416        0.36999
H          6.38774        2.54546       -1.39337
H          6.13043        4.27908       -1.28207
H          5.89720        3.25811        0.13824
H          4.65780        2.32223       -3.30702
H          4.47140        4.07322       -3.26407
H          3.05969        3.02638       -3.11013
H          6.35996        0.93038       -3.12939
H          6.55503       -0.72866       -2.55804
H          4.92302       -0.08901       -2.87179
