111
-148.55089914
P         -1.60108        2.74831       -0.15355
P         -0.51128       -0.14759        0.53177
C         -1.73546        2.10883        1.54425
C         -1.32079        0.82180        1.82010
C         -0.38596        4.13241       -0.26134
C          0.70940        3.79680       -1.25064
C         -2.20326        2.90908        2.56707
H         -2.47078        3.93201        2.36307
C         -2.28911        2.40720        3.85415
H         -2.65918        3.03211        4.65054
C         -1.89251        1.11119        4.12168
H         -1.95366        0.72262        5.12489
C         -1.39451        0.31971        3.10254
H         -1.04368       -0.68112        3.30021
Pd        -1.18067        0.86696       -1.42410
Cl        -1.68501        2.07049       -3.24933
Cl        -0.70407       -1.03028       -2.53216
C         -1.26418        5.33175       -0.67614
C         -3.11307        3.55979       -0.85701
H          1.25205        2.89636       -0.95385
H          0.28845        3.61379       -2.24131
H          1.43141        4.61182       -1.34149
H         -0.67405        6.01967       -1.29924
H         -1.55039        5.91077        0.21433
H         -3.46126        2.89955       -1.66324
C         -2.54855        4.87795       -1.42800
C         -4.21547        3.75530        0.16184
H          0.02879        4.27003        0.74637
H         -3.32130        5.65932       -1.38325
H         -2.31665        4.75117       -2.49586
H         -5.12427        4.14380       -0.30362
H         -4.46685        2.81690        0.66108
H         -3.91495        4.47261        0.92601
C         -1.03173       -4.66259        0.80998
C          0.25875       -4.11449        0.59798
C          0.37944       -2.73765        0.51926
C         -0.70249       -1.91764        0.70582
C         -1.93257       -2.43855        1.01181
C         -2.12138       -3.80746        1.11707
O         -1.24227       -6.06044        0.67308
C          1.51151       -4.98253        0.40242
H          1.32782       -2.28493        0.29115
H         -2.75176       -1.75536        1.15789
C         -3.50160       -4.34329        1.52904
C          3.75149        1.38708        0.05876
C          3.22031        0.47612       -0.88961
C          1.92545        0.02418       -0.70773
C          1.19888        0.37670        0.39854
C          1.73757        1.18715        1.36259
C          3.02620        1.67971        1.24245
O          4.98965        2.03559       -0.19480
C          3.99279        0.02238       -2.13729
H          1.43788       -0.57074       -1.46045
H          1.12438        1.45166        2.20590
C          3.59572        2.55712        2.36800
C          1.69813       -5.26671       -1.09590
C          2.76844       -4.25147        0.92744
C          1.40461       -6.30360        1.18546
C         -4.36600       -4.54120        0.27478
C         -3.37506       -5.66968        2.30062
C         -4.21470       -3.34414        2.46848
C         -1.58832       -6.46418       -0.64597
H          1.80564       -4.33667       -1.65368
H          2.58749       -5.87129       -1.27167
H          0.84263       -5.79902       -1.50506
H          3.63700       -4.90917        0.90236
H          3.01202       -3.37919        0.32342
H          2.62489       -3.92555        1.95725
H          2.32098       -6.88668        1.09716
H          1.22647       -6.10945        2.24259
H          0.58752       -6.91887        0.81770
H         -5.35845       -4.90614        0.53803
H         -4.48334       -3.60152       -0.26440
H         -3.91420       -5.25856       -0.40606
H         -4.34801       -6.01426        2.65007
H         -2.95402       -6.45362        1.67612
H         -2.72643       -5.54882        3.16760
H         -5.13452       -3.77424        2.86417
H         -3.57696       -3.08343        3.31278
H         -4.48874       -2.42693        1.94950
H         -2.54853       -6.97958       -0.63019
H         -1.65106       -5.59668       -1.30428
H         -0.83691       -7.15534       -1.02726
C          4.87105        3.26255       -0.90489
C          3.70240        0.99463       -3.29106
C          5.50553       -0.04595       -1.86180
C          3.55072       -1.39572       -2.56681
C          5.11881        2.37461        2.49660
C          3.25807        4.02904        2.08532
C          2.97928        2.16635        3.73082
H          4.01402        2.00639       -3.04319
H          4.22661        0.69303       -4.19743
H          2.63534        1.02209       -3.51132
H          5.91178        0.93397       -1.62520
H          5.71203       -0.70476       -1.01897
H          6.04494       -0.42547       -2.72925
H          2.52407       -1.40755       -2.92942
H          4.17885       -1.76797       -3.37572
H          3.62916       -2.09439       -1.73476
H          5.51289        2.94848        3.33496
H          5.36712        1.32595        2.65670
H          5.63596        2.70607        1.59978
H          3.67960        4.35691        1.13837
H          2.17928        4.17335        2.03505
H          3.64831        4.67673        2.86993
H          3.08663        1.09732        3.91264
H          1.92127        2.41941        3.78281
H          3.47406        2.69555        4.54491
H          5.29892        4.07097       -0.31228
H          5.42434        3.19921       -1.84169
H          3.82407        3.48134       -1.11611
