111
-148.55741366
P         -1.71824        2.78866        0.13668
P         -0.51557       -0.09703        0.56425
C         -1.62603        2.08879        1.80953
C         -1.16694        0.80031        1.98542
C         -0.60949        4.25705       -0.03893
C          0.49459        3.97038       -1.03505
C         -1.98928        2.84424        2.90601
H         -2.31597        3.86166        2.76591
C         -1.91197        2.29734        4.17531
H         -2.19905        2.88553        5.03162
C         -1.46237        1.00189        4.34687
H         -1.39679        0.57887        5.33577
C         -1.07884        0.25368        3.24831
H         -0.69423       -0.74707        3.36621
Pd        -1.35813        1.00299       -1.27684
Cl        -2.14787        2.23499       -2.97832
Cl        -0.95737       -0.78689       -2.57558
C         -1.57083        5.38318       -0.47152
C         -3.35418        3.56711       -0.24221
H          0.07547        3.72046       -2.01188
H          1.15014        4.83456       -1.16613
H          1.10858        3.12411       -0.71975
H         -1.49230        5.51223       -1.55970
H         -1.25384        6.34415       -0.03909
H         -3.56293        3.32627       -1.29298
C         -3.04834        5.06886       -0.09920
C         -4.46534        3.04968        0.64635
H         -0.20215        4.45356        0.96146
H         -3.24134        5.37399        0.93846
H         -3.74357        5.66065       -0.71425
H         -4.56941        1.96575        0.55850
H         -4.26802        3.27483        1.69486
H         -5.42482        3.50425        0.38931
C         -0.81158       -4.63476        0.63869
C          0.25383       -3.98640        1.31461
C          0.31058       -2.60284        1.27309
C         -0.67770       -1.87370        0.66464
C         -1.76875       -2.49038        0.11161
C         -1.88396       -3.87079        0.11100
O         -0.78237       -6.04230        0.45104
C          1.36474       -4.75626        2.04565
H          1.14652       -2.07236        1.69628
H         -2.51897       -1.87422       -0.35363
C         -3.13210       -4.51363       -0.51301
C          3.75621        1.26054       -0.22282
C          3.19187        0.21542       -0.99853
C          1.88727       -0.16484       -0.73413
C          1.18875        0.38611        0.30644
C          1.76240        1.32523        1.12265
C          3.05962        1.75885        0.90828
O          4.99714        1.83815       -0.60182
C          3.94614       -0.47882       -2.14242
H          1.37769       -0.87179       -1.36597
H          1.17283        1.73236        1.92478
C          3.67784        2.77982        1.87634
C          1.90352       -3.93197        3.23713
C          0.83724       -6.08262        2.62246
C          2.52227       -5.02395        1.07156
C         -4.36316       -3.59518       -0.33990
C         -2.89056       -4.72996       -2.01485
C         -3.47166       -5.85070        0.17013
C         -0.11940       -6.45212       -0.73876
H          1.08953       -3.61654        3.88934
H          2.59978       -4.52237        3.83236
H          2.44052       -3.04482        2.90490
H          1.60877       -6.59460        3.19700
H         -0.01289       -5.90372        3.27991
H          0.51253       -6.75751        1.83466
H          2.19302       -5.61466        0.22004
H          2.92683       -4.08755        0.68822
H          3.33037       -5.56409        1.56413
H         -4.49317       -3.31413        0.70484
H         -4.27456       -2.68573       -0.93219
H         -5.27172       -4.10087       -0.66608
H         -2.67439       -3.78329       -2.50963
H         -2.04566       -5.39231       -2.18694
H         -3.76593       -5.16922       -2.49242
H         -4.39307       -6.27254       -0.23054
H         -2.68324       -6.58421        0.02187
H         -3.60057       -5.71140        1.24295
H          0.72238       -7.09654       -0.48601
H         -0.80761       -7.02105       -1.36368
H          0.24060       -5.58353       -1.29178
C          4.87571        2.92250       -1.51419
C          3.48284       -1.94742       -2.28278
C          3.65489        0.25649       -3.45941
C          5.46133       -0.51249       -1.87328
C          3.06965        2.63036        3.28959
C          5.19529        2.55994        2.01315
C          3.39298        4.20285        1.37270
H          3.55699       -2.46923       -1.32914
H          2.45338       -2.01560       -2.63087
H          4.10025       -2.48068       -3.00522
H          4.16772       -0.21980       -4.29455
H          2.58624        0.25365       -3.67323
H          3.97916        1.29341       -3.41219
H          5.98607       -1.06100       -2.65511
H          5.88122        0.48936       -1.83655
H          5.67062       -0.99688       -0.92009
H          2.02200        2.92738        3.31119
H          3.14203        1.59974        3.63605
H          3.59526        3.26191        4.00546
H          5.70683        2.72862        1.06870
H          5.62550        3.24089        2.74711
H          5.40805        1.53979        2.33098
H          2.32036        4.38613        1.32233
H          3.80348        4.35988        0.37834
H          3.82966        4.94695        2.03830
H          3.82539        3.12674       -1.72587
H          5.34077        3.81128       -1.08791
H          5.39230        2.68078       -2.44282
