75
-122.81227721
P          1.81223       -0.62374        0.10195
C          3.11639       -1.37531       -0.88845
C          4.40923       -1.34480       -0.41687
C          5.42220       -1.94266       -1.14454
C          5.13067       -2.57738       -2.33536
C          3.82959       -2.62255       -2.79488
C          2.81911       -2.02459       -2.06456
H          1.79881       -2.06031       -2.41067
H          3.60054       -3.12204       -3.72189
H          5.91901       -3.04215       -2.90473
H          6.43584       -1.91599       -0.77972
H          4.61821       -0.87058        0.52922
C          1.76209       -1.55351        1.64691
C          1.40479       -0.93826        2.82470
C          1.45857       -1.63782        4.01555
C          1.86453       -2.95728        4.01903
C          2.21321       -3.57663        2.83532
C          2.16409       -2.87019        1.64706
H          2.45006       -3.33726        0.71823
H          2.52710       -4.60747        2.83649
H          1.90231       -3.50637        4.94565
H          1.17517       -1.15581        4.93671
H          1.06628        0.08351        2.80414
C          2.17995        1.10094        0.48586
C          3.35206        1.74349        0.16243
C          3.51225        3.09652        0.42599
C          2.46426        3.79105        1.02893
C          1.27891        3.16441        1.34293
C          1.12968        1.79606        1.06732
O         -0.07413        1.12468        1.33550
C         -1.25193        1.81607        1.00979
C         -1.40532        3.17941        1.30731
C         -2.58056        3.81699        0.97559
C         -3.61152        3.14316        0.32146
C         -3.43711        1.80195        0.00887
C         -2.27373        1.15227        0.34823
P         -1.91376       -0.53112       -0.16456
C         -1.62049       -1.59437        1.25170
C         -1.90380       -1.15263        2.52371
C         -1.79277       -2.02253        3.59277
C         -1.40442       -3.33013        3.37733
C         -1.12269       -3.76872        2.09858
C         -1.23514       -2.89674        1.03045
H         -1.04020       -3.22853        0.02250
H         -0.81675       -4.78831        1.93151
H         -1.31388       -4.00816        4.21017
H         -2.00807       -1.67934        4.59124
H         -2.21427       -0.13124        2.67303
C         -3.35949       -1.21574       -1.00350
C         -4.28719       -1.89038       -0.24118
C         -5.41631       -2.42415       -0.83585
C         -5.61315       -2.27571       -2.19407
C         -4.68696       -1.59150       -2.95500
C         -3.56244       -1.05963       -2.35456
H         -2.84924       -0.49959       -2.93289
H         -4.84271       -1.46649       -4.01401
H         -6.49206       -2.69094       -2.65972
H         -6.13989       -2.95482       -0.23910
H         -4.12339       -1.99848        0.81916
Pd         0.05416       -0.03383       -1.40473
Cl        -1.35590        0.98028       -2.83712
Cl         1.78878        0.81883       -2.58212
H         -4.20686        1.26849       -0.52154
C         -4.87885        3.84092       -0.02347
H         -4.71816        4.91282       -0.14551
H         -5.62479        3.69866        0.75946
H         -5.29361        3.46026       -0.95779
H         -2.69524        4.85892        1.21722
S         -0.06928        4.04443        2.08936
H          2.57458        4.83888        1.24569
C          4.78757        3.78405        0.09007
H          4.14033        1.20053       -0.32707
H          5.52234        3.64743        0.88449
H          5.21236        3.39008       -0.83418
H          4.63415        4.85520       -0.04694
