111
-148.55560615
P         -1.68066        2.72173        0.47866
P         -0.39808       -0.16502        0.58674
C         -1.29238        1.96365        2.08309
C         -0.80173        0.67556        2.12933
C         -0.61102        4.19616        0.16420
C          0.31736        3.94156       -1.00450
C         -1.46065        2.67619        3.25315
H         -1.80951        3.69496        3.20966
C         -1.15940        2.08616        4.46863
H         -1.29448        2.64093        5.38275
C         -0.68039        0.79062        4.51178
H         -0.44060        0.33399        5.45790
C         -0.49083        0.08600        3.33648
H         -0.08489       -0.91337        3.34821
Pd        -1.58838        0.97388       -1.02902
Cl        -2.64604        2.31479       -2.48241
Cl        -1.38851       -0.81136       -2.37746
C         -1.62767        5.33129       -0.07250
C         -3.35359        3.51377        0.42684
H          0.94260        4.81220       -1.21602
H          0.97502        3.09100       -0.81421
H         -0.25349        3.71483       -1.90724
H         -1.74134        5.47995       -1.15509
H         -1.23520        6.28369        0.31465
H         -3.75280        3.30127       -0.57362
C         -3.01749        5.01091        0.54896
C         -4.28891        2.97559        1.48879
H         -0.04609        4.36590        1.09014
H         -3.02081        5.29084        1.61135
H         -3.80702        5.61916        0.08157
H         -5.27709        3.43588        1.41896
H         -4.41151        1.89403        1.39608
H         -3.90595        3.17627        2.48970
C         -0.61166       -4.70779        0.80707
C         -1.76987       -3.96394        0.45621
C         -1.68189       -2.58117        0.44133
C         -0.48894       -1.94753        0.67077
C          0.65941       -2.66522        0.88361
C          0.64217       -4.04995        0.91638
O         -0.72050       -6.08678        1.12185
C         -3.10758       -4.60606        0.05098
H         -2.55111       -1.97903        0.23604
H          1.58240       -2.12690        1.01973
C          1.98854       -4.78413        1.03506
C          3.60061        1.41031       -0.91381
C          2.88236        0.45869       -1.68239
C          1.67056        0.00270       -1.19311
C          1.21487        0.38957        0.03855
C          1.95152        1.23146        0.82940
C          3.16824        1.73212        0.39844
O          4.72560        2.07312       -1.47286
C          3.36325       -0.04337       -3.05189
H          1.03386       -0.62729       -1.78985
H          1.54986        1.51363        1.78641
C          3.97259        2.64691        1.33490
C         -3.63421       -3.92338       -1.23137
C         -2.96413       -6.10501       -0.26523
C         -4.13130       -4.41591        1.18180
C          2.53131       -4.62842        2.46489
C          1.87302       -6.27905        0.68992
C          2.99638       -4.16857        0.03874
C         -0.99346       -6.31578        2.49394
H         -2.88788       -3.96753       -2.02402
H         -4.53741       -4.41528       -1.59132
H         -3.88096       -2.87681       -1.06190
H         -3.89919       -6.51864       -0.64220
H         -2.19254       -6.26667       -1.01717
H         -2.68848       -6.67005        0.62215
H         -5.09725       -4.83928        0.90765
H         -3.79994       -4.90202        2.09751
H         -4.27805       -3.35869        1.40062
H          3.49789       -5.12044        2.57025
H          2.66018       -3.57710        2.72042
H          1.85072       -5.06639        3.19277
H          2.85171       -6.75831        0.68536
H          1.25323       -6.80359        1.41333
H          1.42381       -6.41253       -0.29359
H          3.93792       -4.71702        0.04941
H          2.59996       -4.20146       -0.97563
H          3.22314       -3.13107        0.27851
H         -1.93385       -5.84227        2.77160
H         -1.06364       -7.38898        2.67232
H         -0.19585       -5.89987        3.10768
C          4.40449        3.26581       -2.17846
C          2.79081        0.86325       -4.15217
C          4.90039       -0.07105       -3.12756
C          2.87590       -1.48927       -3.30069
C          3.70218        2.28747        2.81386
C          5.48553        2.48410        1.10220
C          3.55446        4.10712        1.10423
H          3.10320        0.52427       -5.13948
H          1.70133        0.86174       -4.12351
H          3.12269        1.89137       -4.02887
H          5.23855       -0.48682       -4.07638
H          5.32120        0.92706       -3.03765
H          5.31266       -0.68038       -2.32395
H          1.79458       -1.53722       -3.41924
H          3.31545       -1.89445       -4.21178
H          3.15946       -2.13996       -2.47423
H          2.68209        2.53024        3.10821
H          3.86755        1.22509        2.99115
H          4.36603        2.84444        3.47469
H          6.05772        3.08424        1.80924
H          5.78228        1.44277        1.22285
H          5.76891        2.79750        0.10054
H          2.49297        4.24072        1.31019
H          3.73286        4.41161        0.07589
H          4.11096        4.78012        1.75597
H          3.33036        3.45141       -2.14487
H          4.93309        4.10797       -1.73221
H          4.72451        3.17540       -3.21632
