58
-89.86535166
P          1.63943        0.10965        0.90460
C          1.90440        1.83692        0.48418
C          2.15684        2.14219       -0.83387
C          2.33103        3.45839       -1.21853
C          2.25129        4.46333       -0.27522
C          2.00231        4.15405        1.04756
C          1.82885        2.83579        1.42881
H          1.62811        2.58767        2.45778
H          2.20720        1.34144       -1.55476
C          3.15621       -0.83016        0.70931
C          3.10015       -2.20490        0.72131
C          4.26134       -2.94042        0.56281
C          5.46904       -2.29201        0.39443
C          5.51940       -0.91192        0.38352
C          4.35687       -0.17923        0.54139
H          4.37887        0.89851        0.52913
H          2.14783       -2.69661        0.84450
C          1.12686       -0.12014        2.65808
C         -0.30280        0.28157        2.98213
C         -1.34811       -0.66910        2.41358
P         -1.74791       -0.31650        0.65782
C         -3.05024       -1.42559        0.10033
C         -4.02496       -0.96504       -0.75547
C         -5.00805       -1.82536       -1.20989
C         -5.00424       -3.14641       -0.80894
C         -4.01743       -3.60904        0.03873
C         -3.03511       -2.74580        0.49061
H         -2.24974       -3.10202        1.13760
H         -4.00271        0.06238       -1.08135
C         -2.27547        1.39975        0.57272
C         -3.55540        1.74583        0.94262
C         -3.94552        3.07299        0.91141
C         -3.04632        4.04649        0.52243
C         -1.75790        3.69686        0.17105
C         -1.37420        2.36931        0.20074
H         -0.36475        2.08895       -0.04285
H         -4.24224        0.97773        1.26094
Pd         0.11604       -0.57999       -0.70503
Cl         1.89344       -0.95320       -2.03916
Cl        -1.30054       -1.36863       -2.26415
H         -1.02186       -1.70658        2.49959
H         -2.29703       -0.58575        2.94945
H         -0.41947        0.33630        4.07594
H         -0.49611        1.30034        2.62093
H          1.28417       -1.17424        2.89495
H          1.84754        0.43969        3.25880
H          2.52525        3.69738       -2.25114
H          1.93973        4.93941        1.78283
H          4.22137       -4.01728        0.56622
H          6.46123       -0.40591        0.24863
H         -5.77043       -1.46582       -1.88128
H         -4.00796       -4.64260        0.34366
H         -4.94895        3.34603        1.19402
H         -1.04865        4.45471       -0.11830
H          2.38453        5.49100       -0.57164
H          6.37365       -2.86424        0.26814
H         -5.76786       -3.81904       -1.16415
H         -3.34868        5.08078        0.49946
