105
-153.06473203
Cl         0.00962        1.98673        3.05749
Pd        -0.44902        1.32833        0.94707
P         -1.09090        0.50424       -1.16001
N         -0.66414       -0.99918       -1.97300
C          0.23655       -2.00028       -1.61210
C          0.35284       -2.48027       -0.28288
C          1.29183       -3.49479        0.00342
C          1.37566       -4.04167        1.40963
C          2.60747       -4.91839        1.68828
C          2.86896       -5.88717        0.53237
C          3.09799       -5.11455       -0.77426
C          2.07680       -4.03287       -1.02099
C          1.91403       -3.57148       -2.32093
C          1.01014       -2.58489       -2.61358
H          0.90485       -2.22883       -3.62358
H          2.52009       -3.99368       -3.10462
H          4.09448       -4.65725       -0.76345
H          3.72234       -6.54297        0.75640
H          3.48628       -4.27603        1.82705
H          1.36184       -3.20378        2.11499
C         -0.66041       -2.11076        0.73574
C         -0.26152       -1.50182        1.95643
C         -1.21316       -1.35429        2.96983
C         -2.50707       -1.76857        2.79032
C         -2.91923       -2.35399        1.59957
C         -4.35105       -2.82206        1.49662
C         -4.79017       -3.20016        0.07311
C         -3.69996       -4.00949       -0.63355
C         -2.39632       -3.20261       -0.72265
C         -1.99544       -2.52623        0.56654
H         -1.57662       -3.85192       -1.05469
H         -4.03402       -4.32618       -1.63177
H         -4.99239       -2.28891       -0.50294
H         -5.00819       -2.04318        1.90315
H         -3.22480       -1.64235        3.58321
H         -0.91951       -0.88383        3.89177
N          1.03440       -1.00359        2.16121
P          1.62288        0.22010        1.03869
C          2.60452       -0.32096       -0.34736
C          2.38882        0.26903       -1.56791
C          3.18348       -0.07754       -2.64509
C          4.20061       -1.01163       -2.49831
C          4.42213       -1.56990       -1.24579
C          3.62460       -1.22346       -0.16979
H          3.79002       -1.65103        0.80641
H          5.22165       -2.27952       -1.11902
C          5.06029       -1.38336       -3.65538
H          3.01494        0.37396       -3.60764
H          1.59408        0.98829       -1.67180
C          2.57217        1.50345        1.85916
C          3.27407        1.21913        3.00577
C          4.00662        2.21543        3.62552
C          4.03745        3.50063        3.10073
C          3.33725        3.76127        1.93044
C          2.60627        2.76386        1.31082
H          2.05884        2.96383        0.40268
H          3.36610        4.75104        1.50783
C          4.84080        4.56912        3.75684
H          4.55982        1.99975        4.52362
H          3.25351        0.21959        3.40892
H          1.17267       -0.56987        3.06487
H         -0.93667       -0.91885       -2.94467
C         -0.64055        1.87979       -2.23205
C         -0.94163        3.16774       -1.85926
C         -0.58644        4.22713       -2.67181
C          0.06953        4.00434       -3.87452
C          0.36979        2.69861       -4.23670
C          0.00995        1.64197       -3.42062
H          0.25265        0.63133       -3.70237
H          0.89062        2.51485       -5.16095
C          0.48048        5.14437       -4.73998
H         -0.81558        5.23615       -2.37429
H         -1.45457        3.33831       -0.92779
C         -2.88641        0.49993       -1.08804
C         -3.57287        0.67746       -2.26598
C         -4.95662        0.67271       -2.26554
C         -5.66164        0.50220       -1.08206
C         -4.95073        0.31671        0.09499
C         -3.56857        0.30604        0.08815
H         -3.01580        0.15640        1.00137
H         -5.48733        0.18130        1.01830
C         -7.15021        0.47266       -1.07868
H         -5.49736        0.80500       -3.18703
H         -3.02274        0.82073       -3.18304
Cl        -2.26137        2.67160        1.00364
H          3.10131       -5.80419       -1.62811
H          2.49138       -5.46520        2.63472
H          2.00595       -6.55469        0.41491
H          0.46137       -4.61147        1.61353
H         -3.51650       -4.93645       -0.07587
H         -2.49583       -2.43387       -1.49756
H         -4.47988       -3.68512        2.16074
H         -5.73945       -3.75409        0.08934
H          5.41562       -2.41104       -3.56673
H          4.51113       -1.30391       -4.59469
H          5.93111       -0.72935       -3.71733
H          4.39654        5.55184        3.59277
H          4.90172        4.41019        4.83436
H          5.85708        4.58836        3.36094
H          1.50305        5.45134       -4.51606
H          0.43353        4.87308       -5.79563
H         -0.17020        6.00726       -4.59112
H         -7.55830        1.05463       -1.90617
H         -7.51732       -0.55032       -1.17278
H         -7.54891        0.88972       -0.15286
