105
-153.06319263
Cl         0.16541        2.62747        2.83192
Pd        -0.18452        1.68556        0.81103
P         -0.79805        0.55200       -1.17574
N          0.29100       -0.74488       -1.66385
C          0.52991       -2.10067       -1.40638
C          0.07035       -2.80267       -0.26238
C          0.54524       -4.10627       -0.00616
C          0.21684       -4.76959        1.31030
C          1.23972       -5.84218        1.70994
C          1.43120       -6.83982        0.56341
C          1.93098       -6.13499       -0.70996
C          1.38369       -4.74259       -0.92449
C          1.77883       -4.05598       -2.06527
C          1.37870       -2.76485       -2.29095
H          1.72694       -2.23578       -3.16127
H          2.43572       -4.54444       -2.76519
H          3.02554       -6.07050       -0.68431
H          2.11746       -7.64552        0.85983
H          2.19911       -5.36113        1.93808
H          0.14261       -4.00545        2.09411
C         -0.73653       -2.11775        0.77427
C         -0.06110       -1.24565        1.66148
C         -0.78850       -0.62347        2.67538
C         -2.12724       -0.87704        2.82958
C         -2.79411       -1.76796        1.99505
C         -4.24877       -2.05522        2.25221
C         -4.66739       -3.43973        1.73827
C         -4.28241       -3.59599        0.26387
C         -2.77207       -3.39272        0.03845
C         -2.10190       -2.39421        0.95642
H         -2.26571       -4.35682        0.14428
H         -4.84214       -2.86272       -0.32612
H         -5.74415       -3.60587        1.88484
H         -4.85283       -1.27932        1.76804
H         -2.67694       -0.38728        3.61524
H         -0.28170        0.06587        3.32711
N          1.31466       -1.02526        1.50593
P          1.86443        0.61341        1.15112
C          2.63661        0.74063       -0.46010
C          3.42098       -0.28470       -0.93449
C          3.87653       -0.25018       -2.24034
C          3.55506        0.81268       -3.07346
C          2.78321        1.84840       -2.56731
C          2.33060        1.81577       -1.26198
H          1.71409        2.61380       -0.87971
H          2.51860        2.67157       -3.20902
C          3.98923        0.82030       -4.49758
H          4.47000       -1.06132       -2.62647
H          3.64673       -1.12410       -0.29651
C          2.84904        1.35394        2.44219
C          2.90435        0.73150        3.66517
C          3.63463        1.30170        4.69286
C          4.30770        2.50120        4.49723
C          4.23586        3.11342        3.25301
C          3.50517        2.54175        2.22694
H          3.43908        3.01807        1.26162
H          4.75297        4.04442        3.09482
C          5.09816        3.12626        5.59389
H          3.68163        0.81870        5.65376
H          2.37182       -0.19555        3.80752
H          1.78845       -1.62265        0.84240
H          1.08728       -0.22565       -2.01676
C         -0.64908        1.76065       -2.50249
C         -0.87321        3.10282       -2.31041
C         -0.70469        3.99075       -3.35498
C         -0.32266        3.53981       -4.61085
C         -0.10863        2.18078       -4.79313
C         -0.27655        1.29615       -3.74272
H         -0.10491        0.24104       -3.88354
H          0.19791        1.81988       -5.76001
C         -0.10701        4.49823       -5.72987
H         -0.86953        5.04342       -3.20046
H         -1.19002        3.45159       -1.34346
C         -2.49002       -0.02759       -1.26099
C         -2.78264       -0.91760       -2.26757
C         -4.09066       -1.31994       -2.47669
C         -5.11439       -0.83173       -1.67582
C         -4.80109        0.07484       -0.67276
C         -3.49506        0.47858       -0.47217
H         -3.26179        1.22354        0.26799
H         -5.59085        0.47844       -0.06239
C         -6.52702       -1.24001       -1.91135
H         -4.32299       -2.01288       -3.26709
H         -1.98341       -1.28631       -2.89166
Cl        -2.01720        2.96504        0.57295
H          1.69693       -6.74108       -1.59439
H          0.93657       -6.35469        2.63391
H          0.47378       -7.33394        0.35486
H         -0.77585       -5.22703        1.24781
H         -4.60276       -4.57582       -0.11715
H         -2.58097       -3.09150       -0.99805
H         -4.45481       -1.96425        3.32629
H         -4.16359       -4.21460        2.32974
H          4.94227        0.30429       -4.62185
H          3.25130        0.32285       -5.12861
H          4.11361        1.83961       -4.86586
H          5.00267        2.56485        6.52421
H          6.15713        3.16613        5.33496
H          4.75907        4.14548        5.78439
H         -0.74261        5.37834       -5.62294
H          0.93067        4.83357       -5.75752
H         -0.33810        4.03845       -6.69179
H         -6.58113       -2.22052       -2.38656
H         -7.08115       -1.29600       -0.97321
H         -7.03376       -0.52379       -2.55945
