111
-148.55215609
P         -2.55488        2.03492        1.07953
P          0.10243        0.42723        0.48430
C         -1.46239        1.56124        2.44961
C         -0.27337        0.92137        2.17499
C         -3.39248        3.65024        1.43039
C         -2.72441        4.81675        0.73607
C         -1.80714        1.83393        3.75851
H         -2.74822        2.31141        3.97524
C         -0.95203        1.47526        4.78635
H         -1.22143        1.68843        5.80795
C          0.24414        0.84332        4.50586
H          0.90856        0.56226        5.30632
C          0.58225        0.56039        3.19487
H          1.50175        0.04809        2.95823
Pd        -1.35908        1.61150       -0.86372
Cl        -2.73054        3.05370       -1.89232
Cl        -0.10500        1.08310       -2.64983
C         -4.84280        3.37148        0.99814
C         -4.03632        0.93985        0.87982
H         -3.21961        5.76042        0.97594
H         -1.67430        4.90100        1.02511
H         -2.75666        4.69831       -0.34668
H         -4.94977        3.62957       -0.06459
H         -5.53890        4.03298        1.53628
H         -4.06211        0.65362       -0.18020
C         -5.21552        1.87573        1.21005
C         -3.93479       -0.28414        1.76419
H         -3.34935        3.78698        2.51814
H         -5.50887        1.71811        2.25694
H         -6.09909        1.60376        0.61309
H         -3.84247        0.00288        2.81334
H         -4.81769       -0.92055        1.66954
H         -3.05794       -0.88365        1.51050
C         -1.19094       -3.89541       -0.15842
C         -1.04756       -3.39481        1.16094
C         -0.64548       -2.08016        1.32375
C         -0.45728       -1.25917        0.24331
C         -0.69161       -1.71086       -1.02758
C         -1.10299       -3.01047       -1.26319
O         -1.38072       -5.28638       -0.37353
C         -1.28191       -4.26360        2.40615
H         -0.46143       -1.68044        2.30497
H         -0.53438       -1.02510       -1.84114
C         -1.41746       -3.44011       -2.70428
C          4.51024        0.63036       -0.62351
C          3.96329       -0.56487       -0.09073
C          2.61560       -0.58224        0.22600
C          1.84322        0.54261        0.09869
C          2.38947        1.72915       -0.31303
C          3.73090        1.81590       -0.64916
O          5.82311        0.63010       -1.16547
C          4.78922       -1.84556        0.10712
H          2.14108       -1.48868        0.56089
H          1.74355        2.58683       -0.38915
C          4.30584        3.17436       -1.07969
C         -2.38000       -5.31185        2.15118
C          0.03311       -4.95621        2.79488
C         -1.75398       -3.39786        3.59691
C         -0.12882       -3.93414       -3.37885
C         -2.49129       -4.54265       -2.73478
C         -1.97492       -2.24763       -3.51577
C         -0.17071       -6.01454       -0.54194
H         -2.08487       -6.01496        1.37625
H         -2.59142       -5.88545        3.05326
H         -3.30327       -4.82993        1.83119
H          0.39288       -5.59696        1.99341
H          0.80909       -4.22002        3.00394
H         -0.09764       -5.57148        3.68470
H         -0.96956       -2.72809        3.94620
H         -2.62059       -2.79777        3.32116
H         -2.03752       -4.02490        4.44189
H          0.62549       -3.14762       -3.38985
H          0.29083       -4.78705       -2.85062
H         -0.31796       -4.23519       -4.40888
H         -2.76016       -4.79978       -3.75901
H         -2.14272       -5.45035       -2.24877
H         -3.39317       -4.21365       -2.21962
H         -2.32129       -2.57446       -4.49586
H         -2.81692       -1.78733       -2.99944
H         -1.21797       -1.48319       -3.68379
H          0.68956       -5.35010       -0.45044
H         -0.10751       -6.79716        0.21397
H         -0.16108       -6.48795       -1.52353
C          5.87831        0.30173       -2.54819
C          6.25461       -1.51537        0.44342
C          4.23288       -2.67646        1.28666
C          4.71514       -2.69900       -1.16831
C          5.79013        3.29929       -0.69054
C          4.13913        3.33547       -2.59843
C          3.55883        4.33104       -0.37744
H          6.82443       -2.42211        0.64501
H          6.74321       -0.99585       -0.37693
H          6.31127       -0.87625        1.32393
H          4.89055       -3.51554        1.51260
H          4.14881       -2.06589        2.18533
H          3.25194       -3.09251        1.06117
H          5.28333       -3.62183       -1.05432
H          3.68244       -2.96392       -1.39473
H          5.11390       -2.16256       -2.02587
H          6.17835        4.28699       -0.93796
H          5.92064        3.14167        0.37955
H          6.40075        2.56661       -1.21204
H          4.67040        2.55564       -3.13849
H          3.08775        3.27378       -2.87851
H          4.52273        4.29865       -2.93382
H          4.04497        5.28498       -0.58061
H          3.54615        4.18524        0.70238
H          2.53045        4.41702       -0.72506
H          4.87537        0.11721       -2.93530
H          6.33637        1.12182       -3.10087
H          6.49213       -0.58767       -2.68937
