59
-75.79848507
Cl         1.43551        0.38477        2.41804
P          1.44482        0.00608       -0.86402
P         -1.72745       -0.19111       -0.80149
C          0.42798        0.32074       -2.37621
H          0.12231        1.36956       -2.38631
H          1.04706        0.15043       -3.26279
C         -0.77340       -0.57864       -2.33175
H         -0.46993       -1.62834       -2.29593
H         -1.42812       -0.45012       -3.19949
C          2.64251       -1.36373       -1.23450
H          2.46628       -1.60636       -2.29173
C          2.63882        1.36156       -0.44600
H          2.27956        1.83839        0.47453
C         -3.06166       -1.42158       -0.43801
H         -3.14186       -1.46630        0.65520
C         -2.77381        1.31854       -1.07784
H         -2.60184        1.62437       -2.11683
C          4.02354       -0.69694       -1.06813
H          4.73352       -1.41817       -0.63889
H          4.43584       -0.43949       -2.05493
C          3.94828        0.58711       -0.19747
H          4.81420        1.23502       -0.39264
H          4.01977        0.31380        0.86558
C         -4.30720       -0.74338       -1.03038
H         -4.39035       -1.01863       -2.09114
H         -5.21967       -1.12990       -0.55056
C         -4.21592        0.80067       -0.89510
H         -4.57037        1.09532        0.10216
H         -4.89472        1.29696       -1.60484
C          2.43868       -2.62062       -0.39047
H          3.11083       -3.40785       -0.75999
H          1.42617       -3.00544       -0.56563
C          2.72665        2.39626       -1.56338
H          3.10150        1.90442       -2.47068
H          1.71518        2.73915       -1.81758
C         -2.76411       -2.80896       -0.99099
H         -3.66928       -3.42826       -0.92193
H         -2.55302       -2.72668       -2.06496
C         -2.41986        2.45866       -0.12579
H         -3.22157        3.20970       -0.15906
H         -2.42935        2.07289        0.90220
C          2.66414       -2.42635        1.09964
H          3.68256       -2.09946        1.31416
H          2.49415       -3.34715        1.66246
H          1.99343       -1.67193        1.50734
C          3.59348        3.59716       -1.21041
H          3.22913        4.09249       -0.30837
H          3.60590        4.34100       -2.01044
H          4.62835        3.30795       -1.02227
C         -1.61184       -3.48649       -0.26663
H         -0.71510       -2.86759       -0.29465
H         -1.36158       -4.45607       -0.70301
H         -1.84887       -3.64931        0.78655
C         -1.08568        3.12246       -0.43012
H         -1.06680        3.52559       -1.44438
H         -0.87325        3.94657        0.25471
H         -0.25983        2.41630       -0.34837
Cl        -1.76012       -0.15119        2.38310
Pd        -0.12315       -0.00953        0.85247
