72
-98.09822931
Fe         0.04058        2.76005        0.03495
P          1.87536       -0.07970       -0.00760
P         -1.88305       -0.05508        0.04986
C          1.41634        1.53764        0.73309
C          0.39033        1.75517        1.73888
C          0.33948        3.17667        2.03359
C          1.35814        3.84363        1.24453
C          2.00181        2.83353        0.42124
C         -1.42328        1.56513       -0.68071
C         -1.93827        2.87381       -0.30527
C         -1.32692        3.88642       -1.15022
C         -0.34580        3.20956       -1.97561
C         -0.42268        1.78438       -1.70816
C          3.21487       -0.85857        1.03279
C          4.50036       -0.67534        0.19681
C          2.87692        0.22316       -1.54654
C          4.30179        0.32668       -0.96924
C         -3.27320       -0.73954       -0.97694
C         -4.44149        0.14174       -0.50225
C         -2.90473        0.23985        1.57648
C         -4.32067        0.50453        1.00820
H         -0.25502        0.98796        2.16587
H         -0.32764        3.65545        2.75400
H          1.58229        4.91230        1.24899
H          2.81104        3.01115       -0.29033
H         -2.71563        3.05389        0.44056
H          0.16068        1.00685       -2.19762
Cl         1.59720       -3.03315       -0.30786
Cl        -1.62128       -3.05525        0.15475
Pd        -0.01602       -1.48124       -0.02088
H          2.96573       -1.92202        1.12789
C          3.31391       -0.24660        2.42815
H          2.54823        1.17404       -1.98305
C          2.76420       -0.90370       -2.57370
H          4.82544       -1.64524       -0.20671
H          5.32032       -0.34402        0.84941
H          4.48817        1.34951       -0.61005
H          5.04269        0.15125       -1.76369
H         -1.52208        4.95978       -1.12182
H          0.30294        3.68413       -2.71480
H          4.27465       -0.53040        2.87989
H          3.59698       -0.82150       -3.28590
H         -3.43647       -1.77654       -0.66171
C         -3.01342       -0.68170       -2.48263
H         -2.50446        1.12935        2.07696
C         -2.88494       -0.95576        2.52781
H         -5.40474       -0.34678       -0.71699
H         -4.44113        1.06168       -1.10540
H         -4.61304        1.55203        1.17398
H         -5.04650       -0.08624        1.58439
H         -3.97579       -0.64024       -3.01160
H         -3.16072       -1.85475        1.96100
C          2.17864       -0.66945        3.34462
H          1.21353       -0.40292        2.91857
H          2.17222       -1.75087        3.49420
H          2.24565       -0.19970        4.32851
C          1.45134       -0.92908       -3.33502
H          1.30192       -0.00807       -3.90168
H          1.40462       -1.75954       -4.04326
H          0.60844       -1.03684       -2.65528
C         -2.20301       -1.86292       -2.99342
H         -2.74791       -2.79981       -2.86272
H         -1.95855       -1.76890       -4.05385
H         -1.26835       -1.96952       -2.44514
C         -1.56000       -1.17171        3.23896
H         -0.75835       -1.37146        2.52937
H         -1.27499       -0.29468        3.82291
H         -1.59880       -2.02137        3.92449
H          3.35180        0.84634        2.33348
H          2.92341       -1.85934       -2.05790
H         -2.51419        0.26607       -2.72127
H         -3.68263       -0.82952        3.27331
