72
-98.09332626
Fe        -0.03214        2.78591       -0.10492
P          1.83254       -0.08943       -0.06250
P         -1.88833       -0.07579       -0.06982
C          1.41360        1.57831        0.58953
C          0.45455        1.86916        1.64084
C          0.41135        3.30870        1.82939
C          1.36794        3.91164        0.91978
C          1.98840        2.84298        0.15569
C         -1.43245        1.54058       -0.80421
C         -2.02441        2.82948       -0.48458
C         -1.35461        3.84356       -1.28181
C         -0.35761        3.18158       -2.10360
C         -0.41106        1.75924       -1.81522
C          3.03268        0.13125       -1.46782
C          4.40559        0.22211       -0.75508
C          3.02831       -0.85644        1.12169
C          4.32993       -0.12194        0.76364
C         -3.34351       -0.76454       -0.98082
C         -4.52180       -0.22229       -0.15393
C         -2.67048        0.14222        1.59753
C         -4.16757       -0.14842        1.35619
H         -0.10940        1.13299        2.21221
H         -0.20625        3.84083        2.55671
H          1.58972        4.97759        0.83232
H          2.76273        2.96581       -0.60419
H         -2.83854        2.99751        0.22393
H          0.22177        0.98993       -2.25768
Cl         1.57608       -3.02058       -0.45753
Cl        -1.64221       -3.06483        0.24622
Pd        -0.04554       -1.50395       -0.05423
H          2.77109        1.07785       -1.95563
C          2.98942       -1.00297       -2.48845
H          3.11120       -1.91996        0.87096
C          2.56649       -0.68874        2.56360
H          4.84750        1.21916       -0.89913
H          5.10159       -0.46998       -1.24932
H          5.20498       -0.71144        1.07819
H          4.37478        0.80427        1.35487
H         -1.57541        4.91333       -1.27673
H          0.30825        3.66551       -2.82171
H          3.83959       -0.89521       -3.17647
H          2.48602        0.38289        2.78863
H         -3.28993       -1.85603       -0.89733
C         -3.36962       -0.35314       -2.44783
H         -2.51239        1.19073        1.87624
C         -2.03945       -0.78636        2.63147
H         -5.42094       -0.83579       -0.32013
H         -4.77694        0.78134       -0.52283
H         -4.79161        0.59959        1.86743
H         -4.41972       -1.10752        1.82844
H         -4.34387       -0.62141       -2.87973
H         -0.94584       -0.71719        2.57543
C          1.69759       -1.07507       -3.28366
H          1.51160       -0.14617       -3.82580
H          1.71361       -1.88467       -4.01690
H          0.84500       -1.25255       -2.62955
C          3.48564       -1.37062        3.56540
H          4.49708       -0.96338        3.51686
H          3.13294       -1.25139        4.59237
H          3.55947       -2.44118        3.36525
C         -2.24889       -0.98360       -3.25691
H         -2.27499       -0.67901       -4.30556
H         -1.27527       -0.70202       -2.85765
H         -2.30363       -2.07343       -3.22676
C         -2.50775       -0.50141        4.05030
H         -2.04900       -1.17642        4.77637
H         -2.26010        0.51922        4.34828
H         -3.59007       -0.60883        4.14075
H          3.16431       -1.95054       -1.96308
H          1.54473       -1.08133        2.66033
H         -3.31681        0.74178       -2.50989
H         -2.26580       -1.82480        2.35542
