111
-148.55305513
P         -2.39991        2.35237       -0.08172
P         -0.00678        0.35764        0.51484
C         -1.74512        2.21111        1.60026
C         -0.73756        1.30879        1.86230
C         -2.51807        4.11492       -0.62569
C         -1.72664        4.32561       -1.89803
C         -2.26705        2.97783        2.62228
H         -3.03855        3.69864        2.40594
C         -1.79410        2.81887        3.91339
H         -2.20276        3.41535        4.71266
C         -0.80586        1.89075        4.17956
H         -0.44407        1.75953        5.18608
C         -0.27691        1.13232        3.15064
H          0.49064        0.39895        3.34363
Pd        -1.24499        0.84085       -1.39035
Cl        -2.66376        1.28593       -3.07146
Cl        -0.11076       -0.72944       -2.53137
C         -4.03687        4.33725       -0.78704
C         -4.17506        1.83993       -0.23532
H         -1.77887        5.36332       -2.23637
H         -0.67399        4.06663       -1.75931
H         -2.11657        3.69667       -2.70050
H         -4.21808        5.04380       -1.61000
H         -4.44213        4.82247        0.11299
H         -4.18191        0.90746       -0.81638
C         -4.79461        3.00263       -1.03663
C         -4.81889        1.62404        1.11819
H         -2.10935        4.72789        0.18917
H         -5.85839        3.10446       -0.77645
H         -4.77188        2.76765       -2.11099
H         -4.24837        0.91610        1.72303
H         -4.87169        2.56141        1.67381
H         -5.83884        1.24447        1.02141
C         -1.10952       -4.04864        0.74625
C          0.26000       -3.67876        0.74936
C          0.57562       -2.33228        0.68548
C         -0.40543       -1.37653        0.68984
C         -1.72777       -1.72274        0.78822
C         -2.11324       -3.05188        0.85404
O         -1.47504       -5.41358        0.60120
C          1.39773       -4.71159        0.77046
H          1.59901       -2.01062        0.60995
H         -2.46030       -0.93343        0.79116
C         -3.60616       -3.38913        0.98961
C          4.47359        1.08956       -0.00428
C          3.76817        0.27200       -0.92248
C          2.40491        0.11580       -0.74398
C          1.75583        0.65757        0.33411
C          2.45456        1.36678        1.27705
C          3.81922        1.57091        1.15800
O          5.82062        1.45691       -0.26517
C          4.44597       -0.42265       -2.11406
H          1.81564       -0.41940       -1.46679
H          1.91455        1.77579        2.11111
C          4.56502        2.32475        2.27092
C          1.00213       -5.95448        1.58802
C          1.74624       -5.11272       -0.67110
C          2.66247       -4.11990        1.43418
C         -4.22730       -3.50983       -0.41060
C         -3.81227       -4.69314        1.78117
C         -4.35021       -2.27388        1.75811
C         -1.65022       -5.82818       -0.74795
H          0.16081       -6.47502        1.13744
H          1.82972       -6.66042        1.65302
H          0.71637       -5.67235        2.60079
H          2.57358       -5.82163       -0.69052
H          0.89749       -5.57429       -1.16907
H          2.03496       -4.23927       -1.25467
H          3.10530       -3.33060        0.82862
H          2.42908       -3.70962        2.41631
H          3.42525       -4.88714        1.56494
H         -3.75083       -4.29787       -0.98814
H         -5.29169       -3.73452       -0.34781
H         -4.11061       -2.57845       -0.96449
H         -3.38279       -5.54592        1.26175
H         -3.33913       -4.62597        2.76025
H         -4.87219       -4.89797        1.92981
H         -5.37421       -2.57301        1.98075
H         -3.85257       -2.05258        2.70198
H         -4.40649       -1.35742        1.17369
H         -2.67187       -6.17818       -0.89418
H         -1.44704       -5.00082       -1.42920
H         -0.97498       -6.65522       -0.96663
C          5.95798        2.64384       -1.03651
C          5.90901       -0.77886       -1.79388
C          3.72671       -1.74934       -2.44948
C          4.37880        0.49685       -3.34258
C          3.86790        2.11744        3.63508
C          6.00635        1.80459        2.42093
C          4.57535        3.82697        1.95053
H          6.50706        0.11237       -1.62227
H          5.96584       -1.39638       -0.89805
H          6.36698       -1.32956       -2.61515
H          4.27263       -2.30359       -3.21249
H          3.65352       -2.38141       -1.56539
H          2.72255       -1.58041       -2.83501
H          4.84556        0.02721       -4.20797
H          3.34358        0.72194       -3.59811
H          4.88633        1.44058       -3.15698
H          2.89469        2.60498        3.66932
H          3.72898        1.05667        3.84240
H          4.46500        2.54046        4.44264
H          6.59083        1.99138        1.52342
H          6.51469        2.29247        3.25223
H          6.00956        0.73066        2.60439
H          5.08641        4.38919        2.73170
H          3.55854        4.21035        1.86858
H          5.08099        4.02576        1.00875
H          6.55906        3.36817       -0.48697
H          6.46939        2.41708       -1.97176
H          4.97867        3.07261       -1.25280
