75
-122.81417811
P          1.89903       -0.53290       -0.04332
C          3.25990       -1.27537       -0.95712
C          4.52803       -1.20390       -0.42642
C          5.58578       -1.80242       -1.08707
C          5.36294       -2.48052       -2.26889
C          4.08584       -2.56830       -2.78612
C          3.03077       -1.96921       -2.12273
H          2.02806       -2.03461       -2.51345
H          3.91013       -3.10180       -3.70578
H          6.18613       -2.94627       -2.78574
H          6.58046       -1.74277       -0.67680
H          4.68265       -0.69370        0.51147
C          1.71423       -1.52840        1.44099
C          1.60083       -2.89281        1.30325
C          1.55028       -3.69500        2.42924
C          1.61871       -3.12367        3.68449
C          1.73074       -1.75383        3.81732
C          1.77967       -0.95494        2.69010
H          1.86458        0.11557        2.77786
H          1.77692       -1.30688        4.79673
H          1.57701       -3.74753        4.56235
H          1.45879       -4.76364        2.32556
H          1.56748       -3.32465        0.31522
C          2.23556        1.18494        0.38034
C          3.37105        1.86053       -0.00210
C          3.52592        3.20712        0.29576
C          2.49405        3.86823        0.96040
C          1.34259        3.20875        1.32893
C          1.20704        1.84102        1.04186
O          0.03305        1.14150        1.37094
C         -1.17505        1.81021        1.10721
C         -1.33462        3.17102        1.41362
C         -2.52813        3.79584        1.12750
C         -3.57510        3.10989        0.51354
C         -3.40027        1.76899        0.20225
C         -2.21974        1.12905        0.49912
P         -1.85673       -0.56672        0.01216
C         -1.72317       -1.60868        1.47219
C         -1.56826       -1.05149        2.72067
C         -1.55865       -1.86195        3.84055
C         -1.69966       -3.22839        3.70111
C         -1.84567       -3.78520        2.44597
C         -1.85978       -2.97050        1.32800
H         -1.99205       -3.38830        0.34241
H         -1.95209       -4.85189        2.33656
H         -1.68770       -3.86205        4.57283
H         -1.43393       -1.42747        4.81872
H         -1.44389        0.01467        2.81230
C         -3.18277       -1.25340       -0.99395
C         -4.44304       -1.33722       -0.44666
C         -5.47922       -1.88138       -1.18403
C         -5.24284       -2.34640       -2.46231
C         -3.97393       -2.27385       -3.00159
C         -2.94032       -1.72974       -2.26178
H         -1.94600       -1.66760       -2.67319
H         -3.78834       -2.63837       -3.99857
H         -6.04928       -2.76922       -3.03899
H         -6.46769       -1.94428       -0.75951
H         -4.60795       -0.98726        0.56051
Pd         0.00076       -0.00454       -1.34991
Cl        -1.61401        1.00555       -2.57011
Cl         1.50000        0.45236       -2.96681
H         -4.18494        1.23199       -0.30043
C         -4.86100        3.79281        0.20998
H         -4.72732        4.87288        0.13778
H         -5.59776        3.59572        0.98972
H         -5.27278        3.44629       -0.73884
H         -2.64461        4.83670        1.37286
S          0.01626        4.05019        2.15244
H          2.58812        4.91725        1.17931
C          4.74208        3.94306       -0.14103
H          4.13393        1.34700       -0.55980
H          4.95617        4.78038        0.52440
H          5.61601        3.29031       -0.14435
H          4.61288        4.33798       -1.14946
