105
-153.07011362
Cl         0.41060        3.14994        2.42726
Pd        -0.18655        1.80900        0.71671
P         -0.73586        0.48351       -1.16217
N          0.40603       -0.77859       -1.60755
C          0.49581       -2.16531       -1.40930
C         -0.03307       -2.84600       -0.27942
C          0.28891       -4.20441       -0.07355
C         -0.09290       -4.86748        1.22941
C          0.78061       -6.08444        1.56487
C          0.82482       -7.04675        0.37415
C          1.40607       -6.35918       -0.87333
C          1.03562       -4.90207       -1.02660
C          1.50965       -4.22449       -2.14294
C          1.26862       -2.88678       -2.31754
H          1.67706       -2.36840       -3.16790
H          2.10169       -4.76166       -2.86469
H          2.50013       -6.43300       -0.85326
H          1.39725       -7.95067        0.62572
H          1.79827       -5.74732        1.79849
H         -0.04009       -4.12880        2.03911
C         -0.73046       -2.09850        0.79494
C          0.02714       -1.18350        1.56577
C         -0.58324       -0.52974        2.63475
C         -1.89858       -0.76859        2.93903
C         -2.66118       -1.66694        2.19974
C         -4.09363       -1.90026        2.62630
C         -4.90235       -2.87164        1.74322
C         -4.00920       -3.95329        1.12540
C         -2.89767       -3.29379        0.30015
C         -2.07615       -2.33626        1.12183
H         -2.26023       -4.04261       -0.18228
H         -4.59501       -4.65504        0.51508
H         -5.39170       -2.31155        0.93709
H         -4.60098       -0.92860        2.67763
H         -2.35870       -0.25253        3.76457
H         -0.01052        0.18092        3.20348
N          1.34799       -0.92025        1.20367
P          1.87166        0.75303        1.08097
C          2.71313        1.01155       -0.48030
C          2.40876        2.11952       -1.23567
C          2.91364        2.23540       -2.51681
C          3.71593        1.23817       -3.05271
C          4.03764        0.14253       -2.26323
C          3.53756        0.02961       -0.97847
H          3.76112       -0.83609       -0.37499
H          4.67422       -0.62759       -2.66450
C          4.25047        1.36243       -4.43677
H          2.66855        3.09484       -3.11736
H          1.76155        2.88250       -0.83316
C          2.85391        1.27206        2.47919
C          2.89131        0.47079        3.59447
C          3.63157        0.86165        4.69599
C          4.33136        2.06121        4.68488
C          4.28791        2.85039        3.54276
C          3.54742        2.45743        2.44233
H          3.50139        3.07183        1.55704
H          4.83562        3.77701        3.52146
C          5.14638        2.47477        5.86062
H          3.66948        0.23623        5.57145
H          2.34628       -0.45965        3.59241
H          1.64861       -1.35666        0.33945
H          1.25732       -0.28395       -1.84863
C         -0.61750        1.70382       -2.47582
C         -1.08098        2.98557       -2.30089
C         -0.96034        3.90843       -3.32191
C         -0.37477        3.55283       -4.52952
C          0.06298        2.24644       -4.69950
C         -0.05867        1.32625       -3.67389
H          0.28607        0.31308       -3.80143
H          0.50301        1.95496       -5.63784
C         -0.25789        4.54125       -5.63697
H         -1.32170        4.91350       -3.18642
H         -1.53857        3.25609       -1.36418
C         -2.39175       -0.18397       -1.31278
C         -2.59988       -1.08592       -2.33000
C         -3.87250       -1.57479       -2.57144
C         -4.94380       -1.16653       -1.78857
C         -4.71683       -0.24219       -0.77736
C         -3.44686        0.25062       -0.54748
H         -3.27952        1.00213        0.20387
H         -5.54346        0.09985       -0.17841
C         -6.30994       -1.69869       -2.04823
H         -4.03934       -2.28203       -3.36577
H         -1.76230       -1.40124       -2.93243
Cl        -2.21179        2.78337        0.72675
H          1.09566       -6.89456       -1.77964
H          0.42053       -6.59296        2.47045
H         -0.19267       -7.39609        0.15737
H         -1.14093       -5.18128        1.18341
H         -3.56007       -4.55467        1.92545
H         -3.34918       -2.73649       -0.52442
H         -4.08068       -2.27377        3.65737
H         -5.72183       -3.32754        2.31619
H          4.42898        0.38163       -4.87976
H          3.54900        1.89352       -5.08192
H          5.19340        1.91080       -4.44034
H          5.18709        3.56136        5.94831
H          4.72584        2.08421        6.78832
H          6.16894        2.10527        5.77247
H         -0.15613        5.55606       -5.24984
H          0.61541        4.33524       -6.25751
H         -1.14066        4.51185       -6.27707
H         -6.29175       -2.78472       -2.15077
H         -6.99344       -1.45421       -1.23397
H         -6.72069       -1.27966       -2.96779
