111
-148.55010801
P         -2.57404        2.15523        0.62030
P          0.12856        0.49525        0.39238
C         -1.44696        2.05010        2.04020
C         -0.25936        1.36079        1.92332
C         -3.49059        3.76392        0.62431
C         -3.36848        4.47102       -0.70725
C         -1.77840        2.64498        3.24111
H         -2.71522        3.16901        3.33588
C         -0.91400        2.55331        4.31851
H         -1.17303        3.01804        5.25584
C          0.27788        1.86540        4.19535
H          0.94951        1.79179        5.03479
C          0.60454        1.26322        2.99360
H          1.52386        0.70934        2.88283
Pd        -1.33479        1.38332       -1.17011
Cl        -2.99828        1.93156       -2.56227
Cl         0.08616        0.59035       -2.72506
C         -4.93131        3.33787        0.97645
C         -3.98665        0.96519        0.72793
H         -3.81370        3.87088       -1.50199
H         -3.88100        5.43593       -0.69841
H         -2.32266        4.64444       -0.97150
H         -5.64422        4.02825        0.50230
H         -5.09780        3.43853        2.05907
H         -3.87985        0.26830       -0.11495
C         -5.22119        1.87204        0.54620
C         -3.95671        0.21431        2.04097
H         -3.05090        4.37919        1.42067
H         -6.06657        1.46036        1.11658
H         -5.53982        1.85988       -0.50659
H         -4.03805        0.90537        2.88208
H         -4.78103       -0.49901        2.11561
H         -3.02092       -0.33650        2.15735
C         -1.18827       -3.86139        0.58483
C         -1.07990       -3.11504        1.78668
C         -0.66891       -1.79488        1.70532
C         -0.43844       -1.20189        0.49194
C         -0.64172       -1.88972       -0.67431
C         -1.05872       -3.20844       -0.66733
O         -1.38570       -5.26690        0.63743
C         -1.35884       -3.73185        3.16640
H         -0.50807       -1.21211        2.59484
H         -0.45349       -1.37442       -1.59992
C         -1.33575       -3.90505       -2.00828
C          4.54755        0.65441       -0.69422
C          3.79933        1.85756       -0.62005
C          2.46459        1.78163       -0.25469
C          1.86212        0.57015       -0.03946
C          2.55303       -0.59999       -0.21679
C          3.88795       -0.59589       -0.58300
O          5.95887        0.70277       -0.84682
C          4.42028        3.23160       -0.91679
H          1.87247        2.67237       -0.13272
H          2.02923       -1.52777       -0.06672
C          4.59323       -1.93642       -0.84247
C         -2.46728       -4.79699        3.08184
C         -0.06595       -4.35532        3.71360
C         -1.84565       -2.65571        4.16323
C         -2.41447       -4.99286       -1.85867
C         -1.86415       -2.88825       -3.04693
C         -0.03184       -4.51820       -2.54089
C         -0.17936       -6.02024        0.63773
H         -2.16354       -5.63714        2.46221
H         -2.71174       -5.18757        4.06934
H         -3.37377       -4.37379        2.65028
H          0.71728       -3.60269        3.80172
H         -0.22893       -4.79046        4.69929
H          0.30161       -5.14018        3.05702
H         -2.14355       -3.11117        5.10739
H         -1.06486       -1.93162        4.39089
H         -2.70732       -2.12052        3.76630
H         -2.65538       -5.44109       -2.82227
H         -2.08548       -5.79089       -1.19809
H         -3.32879       -4.57112       -1.44256
H         -2.71665       -2.33704       -2.65092
H         -1.09849       -2.17028       -3.33658
H         -2.18614       -3.39533       -3.95604
H         -0.19712       -5.02093       -3.49340
H          0.72134       -3.74584       -2.69386
H          0.37703       -5.24492       -1.84280
H         -0.14801       -6.65716        1.52164
H         -0.14527       -6.66004       -0.24383
H          0.68521       -5.35513        0.63756
C          6.67376        0.73022        0.38203
C          3.35237        4.20589       -1.46382
C          5.00339        3.81785        0.37760
C          5.51790        3.12169       -1.99098
C          5.18804       -2.46211        0.47241
C          3.59047       -2.98155       -1.38458
C          5.69866       -1.78455       -1.90300
H          2.82707        3.76780       -2.31216
H          2.61840        4.46799       -0.70330
H          3.81187        5.13567       -1.79842
H          5.43950        4.80046        0.19938
H          4.22793        3.92467        1.13578
H          5.77947        3.17526        0.78636
H          5.91122        4.10386       -2.25188
H          6.35146        2.51507       -1.64566
H          5.12302        2.66240       -2.89659
H          5.91715       -1.76645        0.88106
H          4.40723       -2.60103        1.21991
H          5.68466       -3.42015        0.32077
H          3.05329       -2.58908       -2.24760
H          4.10711       -3.88906       -1.69612
H          2.86130       -3.27287       -0.62989
H          6.15484       -2.74668       -2.13462
H          6.48817       -1.12005       -1.56101
H          5.29073       -1.37130       -2.82486
H          5.98187        0.72860        1.22524
H          7.32643       -0.14023        0.44553
H          7.29487        1.62488        0.42275
