111
-148.55299370
P         -1.61117        2.81431        0.06936
P         -0.61052       -0.16703        0.45746
C         -1.62011        2.06424        1.72613
C         -1.26421        0.73919        1.87588
C         -0.35978        4.16474       -0.06093
C          0.62735        3.86835       -1.16970
C         -1.94122        2.81588        2.83859
H         -2.15974        3.86454        2.72770
C         -1.94246        2.23009        4.09256
H         -2.19787        2.81736        4.95949
C         -1.60939        0.89714        4.23571
H         -1.60565        0.44204        5.21248
C         -1.25693        0.15297        3.12465
H         -0.95683       -0.87780        3.22470
Pd        -1.40460        1.01001       -1.36546
Cl        -2.03184        2.41778       -2.99910
Cl        -1.13960       -0.78929       -2.67885
C         -1.22561        5.41872       -0.30523
C         -3.15251        3.72648       -0.41528
H          0.11070        3.76765       -2.12622
H          1.36693        4.66591       -1.27304
H          1.16415        2.93489       -0.98671
H         -0.67271        6.12755       -0.93886
H         -1.39807        5.94460        0.64547
H         -3.60804        3.13866       -1.22398
C         -2.59557        5.06253       -0.95041
C         -4.13833        3.88571        0.72267
H          0.15116        4.21748        0.90949
H         -3.32800        5.86377       -0.77376
H         -2.47692        5.00491       -2.04252
H         -3.73358        4.53538        1.49907
H         -5.07230        4.33766        0.38078
H         -4.37718        2.92298        1.17990
C         -0.75477       -4.70443        0.80218
C          0.16456       -3.96035        1.58891
C          0.18856       -2.58303        1.44015
C         -0.70990       -1.94337        0.62626
C         -1.68170       -2.64613       -0.03583
C         -1.75651       -4.02620        0.05808
O         -0.62117       -6.11274        0.69579
C          1.12902       -4.58910        2.60910
H          0.92821       -1.99060        1.95290
H         -2.37185       -2.10235       -0.65837
C         -2.91892       -4.73200       -0.66032
C          3.67078        1.23492       -0.22526
C          2.95881        0.59212       -1.27025
C          1.68669        0.11972       -0.99948
C          1.08967        0.34756        0.21219
C          1.72760        1.07063        1.18552
C          3.01121        1.55065        0.99010
O          5.04785        1.54596       -0.38173
C          3.52497        0.42643       -2.68944
H          1.11638       -0.39886       -1.75054
H          1.20228        1.26190        2.10436
C          3.68009        2.38993        2.08953
C          2.56341       -4.53733        2.05725
C          1.06738       -3.79110        3.93063
C          0.75900       -6.04396        2.94655
C         -3.10611       -6.18434       -0.18818
C         -4.23834       -3.98742       -0.35865
C         -2.66618       -4.71141       -2.17720
C          0.24978       -6.50431       -0.35258
H          2.86405       -3.51093        1.84883
H          3.27102       -4.95547        2.77272
H          2.64975       -5.10249        1.13127
H          1.42586       -2.77076        3.80526
H          0.04493       -3.74572        4.30470
H          1.68491       -4.25972        4.69651
H          0.87823       -6.69233        2.08184
H          1.39241       -6.43620        3.74186
H         -0.27812       -6.11066        3.27334
H         -2.25327       -6.80113       -0.46114
H         -3.21477       -6.22521        0.89504
H         -3.99274       -6.63207       -0.63650
H         -4.23719       -2.97874       -0.76811
H         -5.08846       -4.51220       -0.79381
H         -4.40202       -3.91560        0.71622
H         -2.56670       -3.68930       -2.54136
H         -1.75127       -5.24309       -2.43096
H         -3.48843       -5.18155       -2.71586
H         -0.12747       -6.14160       -1.30722
H          1.24295       -6.08966       -0.18875
H          0.31327       -7.59232       -0.37995
C          5.92597        0.47976       -0.04433
C          4.49252        1.57164       -3.03911
C          4.24046       -0.92826       -2.79776
C          2.38596        0.47002       -3.73512
C          4.56203        3.49072        1.47297
C          2.62325        3.09549        2.96920
C          4.52470        1.47338        2.98706
H          4.00011        2.53694       -2.92555
H          5.36629        1.56596       -2.39271
H          4.84289        1.48853       -4.06758
H          4.64711       -1.07615       -3.79784
H          5.06027       -0.99991       -2.08697
H          3.55011       -1.74543       -2.58973
H          1.73853       -0.40262       -3.66551
H          1.77285        1.36139       -3.60429
H          2.78973        0.48748       -4.74702
H          4.99286        4.12674        2.24582
H          5.38316        3.06526        0.90080
H          3.97736        4.11984        0.80243
H          1.93294        3.67487        2.35769
H          2.04757        2.38241        3.55771
H          3.09954        3.77892        3.67179
H          4.99902        2.04025        3.78779
H          5.30743        0.97800        2.41835
H          3.90422        0.70097        3.44105
H          6.64285        0.82272        0.70165
H          5.36316       -0.36606        0.35267
H          6.48063        0.16527       -0.92796
