105
-153.05948745
Cl         0.59115        3.75431        1.36228
Pd        -0.13506        1.98940        0.16621
P         -0.70148        0.20769       -1.30270
N          0.17091       -1.21170       -1.91099
C          0.25592       -2.53026       -1.47488
C         -0.09803       -2.98020       -0.17295
C          0.21226       -4.30559        0.20511
C          0.05434       -4.72587        1.64861
C         -0.10135       -6.24253        1.82664
C          1.02761       -6.98097        1.10158
C          1.02936       -6.64880       -0.40020
C          0.74275       -5.20143       -0.72668
C          1.01076       -4.75692       -2.01409
C          0.79390       -3.45220       -2.37229
H          1.04785       -3.11960       -3.36397
H          1.41723       -5.45041       -2.73091
H          1.99407       -6.92413       -0.84524
H          1.99012       -6.68963        1.54071
H         -0.13103       -6.51453        2.89128
H          0.93595       -4.38022        2.20174
C         -0.70890       -2.08545        0.84690
C          0.09416       -1.07204        1.43189
C         -0.39263       -0.36076        2.52893
C         -1.64682       -0.61633        3.01922
C         -2.47024       -1.57656        2.43824
C         -3.83339       -1.80294        3.05001
C         -4.75080       -2.76058        2.26792
C         -3.95657       -3.90613        1.63230
C         -2.88287       -3.34857        0.68836
C         -2.00382       -2.31428        1.34621
H         -2.27120       -4.16140        0.28019
H         -4.62306       -4.60234        1.10371
H         -5.27124       -2.20495        1.47875
H         -4.32443       -0.82924        3.17336
H         -2.01502       -0.05839        3.86344
H          0.21803        0.40754        2.96653
N          1.26505       -0.71657        0.76850
P          1.79402        0.91285        0.96199
C          2.92109        1.35529       -0.35432
C          3.13988        2.68378       -0.63030
C          3.92882        3.03953       -1.70850
C          4.49902        2.06473       -2.51679
C          4.25268        0.72849       -2.22931
C          3.46437        0.37462       -1.14931
H          3.25899       -0.66118       -0.93246
H          4.67464       -0.03327       -2.86242
C          5.31505        2.44522       -3.70269
H          4.09282        4.07842       -1.93816
H          2.65291        3.43177       -0.02469
C          2.56314        1.04948        2.57555
C          3.25310       -0.04052        3.05005
C          3.85605        0.01549        4.29454
C          3.77442        1.16660        5.06702
C          3.06330        2.25242        4.57387
C          2.46288        2.19238        3.33107
H          1.90557        3.02888        2.94607
H          2.98056        3.14428        5.17132
C          4.39872        1.21976        6.41801
H          4.39086       -0.83810        4.67451
H          3.30366       -0.93395        2.44733
H          1.13642       -0.84888       -0.23360
H          0.40122       -1.03170       -2.88034
C         -0.57331        1.35469       -2.68400
C          0.68755        1.75050       -3.06098
C          0.84559        2.64393       -4.10445
C         -0.26094        3.14990       -4.77265
C         -1.52585        2.72957       -4.38307
C         -1.68113        1.83648       -3.33917
H         -2.66283        1.52228       -3.02543
H         -2.38989        3.11057       -4.90017
C         -0.09319        4.09811       -5.90848
H          1.83180        2.95816       -4.40029
H          1.54420        1.37353       -2.52649
C         -2.43015       -0.24376       -1.16282
C         -3.24151        0.26357       -0.17641
C         -4.58014       -0.07930       -0.14246
C         -5.11529       -0.93542       -1.09592
C         -4.28129       -1.43595       -2.08589
C         -2.94139       -1.09098       -2.11686
H         -2.28691       -1.48103       -2.88053
H         -4.68674       -2.10036       -2.82966
C         -6.55463       -1.31595       -1.06578
H         -5.21797        0.32051        0.62709
H         -2.82746        0.92886        0.56326
Cl        -2.04429        3.05435       -0.33880
H          0.28517       -7.26974       -0.91329
H         -1.06740       -6.55871        1.41333
H          0.94818       -8.06547        1.26217
H         -0.79153       -4.20434        2.10883
H         -3.47547       -4.49751        2.42136
H         -3.36385       -2.89030       -0.18180
H         -3.69000       -2.18600        4.06753
H         -5.54539       -3.15466        2.91703
H          4.69098        2.51917       -4.59437
H          5.80309        3.40920       -3.55252
H          6.09414        1.70683       -3.89720
H          3.69570        0.88670        7.18271
H          5.28075        0.57994        6.46988
H          4.71153        2.23466        6.66735
H         -0.93448        4.78978       -5.97060
H          0.81480        4.69201       -5.79476
H         -0.02788        3.56079       -6.85555
H         -6.66882       -2.39993       -1.01804
H         -7.06190       -0.88932       -0.19942
H         -7.06811       -0.96191       -1.96071
