72
-108.39956149
Cl        -1.95205        0.00055        2.83758
Cl         0.98013       -0.98413        2.74539
P          1.18548       -1.01544       -0.32282
P         -2.21689        0.14117       -0.40117
C         -3.34897       -1.38494       -0.28957
C         -4.19517       -1.28731        0.97704
C         -4.26843       -1.50997       -1.51024
C         -3.15732        1.77236       -0.09556
C         -4.48587        1.75763       -0.84484
C         -1.43013        0.41405       -2.08942
C         -1.37832       -0.79211       -3.00718
C          1.14861        0.31778       -1.55348
C         -0.04744        1.03928       -1.98764
C          0.41693        2.18475       -2.77390
C          1.86303        2.13050       -2.86961
C          2.31243        0.97790       -2.11430
C         -2.46739       -2.62530       -0.19173
H         -3.56935       -1.16586        1.85951
H         -4.89952       -0.45936        0.93305
H         -3.75857       -1.97609       -2.35059
H         -4.65386       -0.54803       -1.83884
C         -3.39189        1.98777        1.39423
H         -4.99306        2.71819       -0.74079
H         -5.16150        0.99591       -0.46080
H         -2.09137        1.15236       -2.55739
H         -0.84821       -1.61550       -2.53709
H         -0.83572       -0.55435       -3.92444
H         -2.36575       -1.13627       -3.30602
H         -0.22810        2.87784       -3.31737
H          2.49930        2.82524       -3.42171
Pd        -0.50651       -0.36173        1.15983
H          3.34637        0.67069       -1.94527
C         -2.30911        2.92606       -0.63035
H         -4.33348        1.58383       -1.91043
H         -2.44548        2.06598        1.92822
H         -3.94543        2.91130        1.57060
H         -3.96096        1.17436        1.83927
H         -1.28333        2.83932       -0.28627
H         -2.29669        2.95492       -1.71949
H         -2.69900        3.88710       -0.29034
H         -4.77982       -2.19789        1.11852
H         -5.12379       -2.14772       -1.28117
H         -1.84894       -2.60337        0.70556
H         -3.07659       -3.52957       -0.14529
H         -1.81353       -2.71571       -1.05681
C          2.87653       -1.10412        0.32046
C          3.36464       -2.14238        1.07400
C          4.69177       -1.83969        1.37854
C          4.96078       -0.62684        0.79391
O          3.85548       -0.16471        0.13977
H          2.81678       -3.01901        1.37828
H          5.37165       -2.43965        1.96111
H          5.90578       -0.09953        0.83692
C          0.77255       -2.64168       -0.97490
C          0.55721       -3.72110       -0.15466
C          0.26557       -4.80884       -0.97922
C          0.31586       -4.34528       -2.27125
O          0.62317       -3.01435       -2.28292
H          0.59489       -3.71282        0.92326
H          0.04375       -5.81506       -0.66325
H          0.13803       -4.93492       -3.16203
Fe         1.23288        2.24315       -0.88940
C          2.89522        2.64150        0.22318
C          1.88885        1.96577        1.01615
C          0.68990        2.77796        0.99895
C          0.95013        3.96423        0.20269
C          2.30939        3.86430       -0.29761
H          3.91377        2.28524        0.05315
H          2.01422        1.02827        1.56265
H         -0.20862        2.57606        1.58563
H          0.25895        4.79213        0.02909
H          2.82067        4.60602       -0.91578
