72
-108.40337568
Cl        -1.78614        0.82249        2.68345
Cl         0.98383       -0.82344        2.73364
P          1.11191       -1.14312       -0.26624
P         -2.25128        0.12728       -0.40479
C         -3.26052       -1.46473       -0.18810
C         -3.64346       -1.62212        1.28502
C         -4.51053       -1.41317       -1.05909
C         -3.32549        1.68145       -0.16383
C         -4.12083        1.98304       -1.44079
C         -1.42301        0.42238       -2.07367
C         -1.47164       -0.74244       -3.04043
C          1.14526        0.20774       -1.48402
C         -0.00787        0.96202       -1.97284
C          0.51161        2.05347       -2.79814
C          1.95871        1.96042       -2.81908
C          2.34848        0.80737       -2.02963
C         -2.40052       -2.65934       -0.57555
H         -2.76390       -1.60020        1.92847
H         -4.32378       -0.84464        1.62152
H         -5.19992       -0.63993       -0.72425
H         -5.04668       -2.36264       -1.01644
C         -4.29863        1.54460        1.00313
H         -4.61164        1.09407       -1.83260
H         -3.49224        2.39868       -2.22751
H         -2.02322        1.22891       -2.50476
H         -0.82680       -1.54831       -2.69801
H         -1.10101       -0.44869       -4.02466
H         -2.48062       -1.13083       -3.17424
H         -0.09401        2.75440       -3.37571
H          2.63561        2.61395       -3.37438
Pd        -0.53520       -0.24938        1.17193
H          3.36601        0.46819       -1.82400
C         -2.35500        2.82039        0.11166
H         -4.89482        2.72595       -1.24094
H         -3.79018        1.23552        1.91393
H         -4.78002        2.50125        1.21123
H         -5.09252        0.83354        0.78213
H         -1.58398        2.87238       -0.65834
H         -2.87486        3.78027        0.13359
H         -1.87346        2.68672        1.07905
H         -4.14559       -2.57685        1.44979
H         -4.26411       -1.22014       -2.10215
H         -1.47951       -2.66581        0.00442
H         -2.92315       -3.59546       -0.37147
H         -2.14829       -2.66057       -1.63274
C          2.78759       -1.25646        0.41933
C          3.24814       -2.28742        1.20025
C          4.57140       -1.99408        1.52929
C          4.86660       -0.79395        0.93164
O          3.78096       -0.33104        0.24615
H          2.68476       -3.15086        1.51257
H          5.23137       -2.59121        2.13714
H          5.81580       -0.27549        0.98767
C          0.72816       -2.74720       -0.99422
C          0.60993       -3.90005       -0.25745
C          0.31522       -4.92887       -1.15312
C          0.26698       -4.35940       -2.40189
O          0.51524       -3.01893       -2.31813
H          0.70511       -3.98218        0.81339
H          0.15600       -5.96706       -0.91154
H          0.06110       -4.88211       -3.32773
Fe         1.31822        2.13909       -0.90251
C          0.90133        3.79751        0.18601
C          2.23113        3.88622       -0.39137
C          3.01553        2.77174        0.11018
C          2.16025        1.98146        0.97291
C          0.86529        2.62323        1.03774
H          0.09373        4.52047        0.04872
H          2.59042        4.67509       -1.05645
H          4.05984        2.55605       -0.12544
H          2.44356        1.07021        1.50288
H          0.03952        2.29575        1.67157
