64
-97.20804229
Cl        -1.55517       -1.58730       -2.52653
Cl         1.59875       -1.61283       -2.83731
P          1.94552       -0.60864        0.25535
C          2.21100       -2.26237        1.04399
C          3.70656       -0.15578       -0.11736
P         -1.27632       -0.13070        0.41934
C          1.26802        0.62327        1.42227
C         -0.15964        0.85797        1.48356
C         -0.38447        1.99715        2.36159
C          0.90756        2.45341        2.84464
C          1.93241        1.59558        2.27591
H         -1.34937        2.44907        2.59582
H          1.07780        3.28790        3.52865
Pd         0.17565       -1.02526       -1.21009
H          3.00957        1.67893        2.43319
C         -4.86810        2.39410       -0.79961
C         -4.50799        2.29110        0.52952
C         -3.42612        1.50861        0.89222
C         -2.70765        0.84091       -0.07357
C         -3.08259        0.92122       -1.39543
C         -4.15951        1.70500       -1.76350
H         -5.70981        3.00450       -1.08377
H         -5.06886        2.81784        1.28407
H         -3.14837        1.40253        1.92830
H         -2.54755        0.34489       -2.13086
H         -4.44961        1.77011       -2.79939
C         -2.72427       -3.86136        2.56709
C         -2.34657       -2.75071        3.29686
C         -1.91075       -1.61205        2.64293
C         -1.85437       -1.59637        1.26853
C         -2.23392       -2.69735        0.53753
C         -2.67018       -3.83689        1.18701
H         -3.06369       -4.74889        3.07586
H         -2.39029       -2.77020        4.37344
H         -1.60929       -0.73668        3.19608
H         -2.18304       -2.65460       -0.53867
H         -2.96643       -4.70214        0.61706
C          4.01090       -0.20032       -1.59833
H          3.86065        0.85821        0.27448
C          4.50719       -1.19118        0.69692
H          4.74110       -0.78561        1.69219
C          3.71874       -2.51890        0.85467
H          5.47829       -1.37123        0.21308
C          1.77724       -2.22680        2.49329
H          1.61071       -2.98862        0.47890
H          4.10324       -3.10014        1.70516
H          3.88315       -3.14745       -0.03266
H          2.34624       -1.47612        3.04542
H          0.72022       -1.96915        2.58505
H          1.93339       -3.19067        2.98348
H          3.37634        0.48516       -2.16242
H          5.05164        0.06146       -1.80158
H          3.84085       -1.20337       -1.99242
Fe         0.83154        2.49553        0.79052
C          2.11589        3.15105       -0.67876
C          1.41906        4.27386       -0.07477
C         -0.00748        4.06817       -0.25679
C         -0.18807        2.81366       -0.96349
C          1.12112        2.25130       -1.23079
H          3.19939        3.02831       -0.74199
H          1.88675        5.13392        0.40967
H         -0.80331        4.73929        0.07382
H         -1.14360        2.38417       -1.26504
H          1.32012        1.34069       -1.79852
