111
-148.55993443
P         -2.49955        2.30082        0.25874
P         -0.03790        0.32568        0.47173
C         -1.70057        2.03982        1.86069
C         -0.63589        1.17064        1.94941
C         -2.92990        4.07663       -0.02633
C         -2.01091        4.69337       -1.05851
C         -2.16615        2.68035        2.99090
H         -3.00907        3.34789        2.91550
C         -1.55555        2.45097        4.21185
H         -1.91699        2.95086        5.09564
C         -0.48759        1.57855        4.29944
H         -0.01347        1.39807        5.25013
C         -0.02863        0.93337        3.16496
H          0.80115        0.24611        3.21777
Pd        -1.16183        1.29339       -1.31868
Cl        -2.66523        1.79951       -2.90291
Cl         0.26316        0.25491       -2.70640
C         -4.40944        4.00813       -0.45006
C         -4.18155        1.53500        0.17655
H         -2.08411        4.16013       -2.00825
H         -2.26551        5.73914       -1.24633
H         -0.96714        4.64968       -0.73784
H         -4.45949        3.97161       -1.54711
H         -4.93451        4.93133       -0.16123
H         -4.22140        0.99156       -0.77675
C         -5.11933        2.75624        0.13941
C         -4.41480        0.59897        1.34351
H         -2.82830        4.58534        0.94081
H         -5.45661        2.97467        1.16195
H         -6.03257        2.51967       -0.42750
H         -3.66112       -0.19124        1.37589
H         -4.35754        1.13914        2.29016
H         -5.40022        0.13028        1.28985
C         -1.16894       -4.08654        0.49752
C         -0.08709       -3.62953        1.29309
C          0.23898       -2.28381        1.24594
C         -0.51324       -1.39998        0.51683
C         -1.63390       -1.81797       -0.15304
C         -2.00686       -3.15134       -0.16146
O         -1.38886       -5.47986        0.33095
C          0.74258       -4.57135        2.18043
H          1.09919       -1.90683        1.77206
H         -2.20956       -1.08895       -0.69473
C         -3.27170       -3.56859       -0.92853
C          4.44513        0.86053       -0.15147
C          3.77159       -0.23626       -0.74636
C          2.40885       -0.36110       -0.53445
C          1.73211        0.51495        0.27240
C          2.39621        1.52068        0.92542
C          3.76246        1.69140        0.77380
O          5.78772        1.15120       -0.51216
C          4.47813       -1.25201       -1.65704
H          1.84425       -1.13558       -1.02463
H          1.82714        2.18054        1.55663
C          4.47416        2.77986        1.59299
C          1.29297       -3.81491        3.41095
C         -0.11840       -5.73011        2.71559
C          1.92854       -5.12181        1.37463
C         -4.32158       -2.43475       -0.91699
C         -2.89818       -3.87207       -2.38748
C         -3.93603       -4.79746       -0.28156
C         -0.67538       -6.05208       -0.75819
H          0.49028       -3.30557        3.94364
H          1.77170       -4.50405        4.10632
H          2.04097       -3.07551        3.12866
H          0.45216       -6.35985        3.39778
H         -0.98579       -5.34737        3.25235
H         -0.47859       -6.36277        1.90822
H          2.53387       -5.79505        1.98109
H          1.59119       -5.67028        0.49857
H          2.56894       -4.31026        1.03184
H         -3.98928       -1.56925       -1.48797
H         -5.25735       -2.77021       -1.36344
H         -4.53481       -2.11662        0.10261
H         -2.45882       -2.99485       -2.86201
H         -2.17209       -4.67912       -2.44885
H         -3.77615       -4.16360       -2.96323
H         -4.16038       -4.60445        0.76697
H         -4.86768       -5.05078       -0.78686
H         -3.28944       -5.66996       -0.32875
H         -1.37866       -6.48181       -1.47127
H         -0.07001       -5.29400       -1.25686
H         -0.03046       -6.85126       -0.39319
C          5.90908        2.04757       -1.60964
C          5.94458       -1.45506       -1.23547
C          3.79073       -2.63351       -1.56912
C          4.40557       -0.75974       -3.11053
C          5.92892        2.38103        1.90135
C          4.44162        4.10529        0.81742
C          3.76764        2.98525        2.95281
H          6.00465       -1.76126       -0.19162
H          6.42402       -2.22263       -1.84249
H          6.52077       -0.54024       -1.34797
H          4.35983       -3.38472       -2.11625
H          3.71554       -2.96001       -0.53281
H          2.78999       -2.61651       -1.99804
H          4.89674        0.20365       -3.22499
H          4.88567       -1.46599       -3.78729
H          3.36871       -0.64133       -3.42453
H          6.51835        2.29500        0.99199
H          6.41201        3.12189        2.53793
H          5.96288        1.41993        2.41332
H          3.41444        4.41090        0.61974
H          4.92768        4.90020        1.38252
H          4.94974        4.01474       -0.13965
H          3.66070        2.03795        3.48077
H          2.77828        3.42395        2.83239
H          4.34075        3.65973        3.58859
H          6.44689        1.56043       -2.42280
H          4.92292        2.35535       -1.95969
H          6.47719        2.92587       -1.30359
