45
-71.81629945
C          0.39085        0.66718        2.49858
P          0.95239        0.65298        0.76192
P         -1.59262        0.28347       -1.04866
C         -2.32666       -0.06661       -2.68122
Cl         1.64192       -2.38192        0.71050
H          0.72034       -0.23669        3.00300
H         -3.15398        0.61076       -2.87239
Cl        -0.89738       -2.81128       -1.53813
C          0.29453        2.06494       -0.14727
C         -0.80689        1.90458       -0.95875
C         -1.32438        2.98288       -1.64667
C         -0.72378        4.22412       -1.52904
C          0.38540        4.38285       -0.72058
C          0.89587        3.30057       -0.02552
H         -2.19696        2.85002       -2.26529
H         -1.12389        5.06786       -2.06683
H          0.85272        5.34950       -0.62922
H          1.76013        3.40844        0.61015
Pd         0.02283       -1.19559       -0.29185
H         -2.69445       -1.08834       -2.70806
H         -0.69379        0.71278        2.53483
H         -1.57669        0.05811       -3.45705
C         -4.50522       -0.27616        2.39227
C         -3.96284        0.97114        2.15013
C         -3.08704        1.14849        1.09438
C         -2.76753        0.07987        0.28903
C         -3.29483       -1.16732        0.53228
C         -4.17149       -1.34741        1.58652
H         -5.18725       -0.41498        3.21518
H         -4.21935        1.80468        2.78313
H         -2.64832        2.11313        0.89659
H         -2.99149       -1.99549       -0.08879
H         -4.58652       -2.32251        1.78175
C          5.46560        0.42078        0.23598
C          4.92572        0.30732        1.50196
C          3.55575        0.38314        1.67776
C          2.73733        0.57421        0.58792
C          3.27005        0.68337       -0.67657
C          4.64014        0.60831       -0.85489
H          6.53284        0.35918        0.09870
H          5.57000        0.15523        2.35231
H          3.12319        0.28648        2.66017
H          2.61033        0.82492       -1.51858
H          5.06033        0.69269       -1.84360
H          0.79747        1.53285        3.01356
