171
-217.84633544
P         -1.57189        0.39310       -0.34965
P          1.58607       -0.42600       -0.34649
C         -0.86519        1.32230       -1.71545
C          0.87817       -1.38694       -1.68943
C         -0.08668        0.69565       -2.68168
C          0.52569        1.48447       -3.67465
C          0.30321        2.85132       -3.68646
C         -0.49610        3.44975       -2.73583
C         -1.07056        2.68010       -1.74332
C          1.08449       -2.74481       -1.69017
C          0.50880       -3.53471       -2.66595
C         -0.29131       -2.95597       -3.62805
C         -0.51409       -1.58921       -3.64394
C          0.09808       -0.78041       -2.66701
Cl         1.64897        0.40848        2.79742
Cl        -1.55130       -0.41492        2.89164
C         -1.38437       -1.00308       -4.70025
C          1.39749        0.87734       -4.71781
H         -0.66867        4.51317       -2.76408
H         -1.68264        3.14072       -0.98458
H          1.69864       -3.18958       -0.92380
H          0.67973       -4.59879       -2.67126
H          0.76682        3.44889       -4.45323
H         -0.75496       -3.56912       -4.38241
C         -3.81546       -3.37205       -1.46386
C         -2.85092       -3.43381       -0.46534
C         -2.15127       -2.27146       -0.17200
C         -2.42404       -1.10370       -0.83990
C         -3.38456       -1.05675       -1.82002
C         -4.10445       -2.19898       -2.15107
H         -4.37241       -4.25651       -1.70890
H         -1.39362       -2.27049        0.59210
H         -3.57126       -0.11897       -2.31505
C         -4.36219        3.02740        2.07106
C         -4.90714        2.04655        1.25214
C         -4.03213        1.25239        0.52265
C         -2.67607        1.44811        0.60561
C         -2.15535        2.42511        1.41840
C         -2.99193        3.22574        2.18505
H         -5.02536        3.65311        2.63948
H         -4.40251        0.46749       -0.11173
H         -1.08730        2.54891        1.46169
C          4.34949       -2.93364        2.23229
C          2.98280       -3.18441        2.27571
C          2.15872       -2.42990        1.45197
C          2.68360       -1.45326        0.64258
C          4.03433       -1.21174        0.61967
C          4.89896       -1.95561        1.41211
H          5.00907       -3.50262        2.86009
H          1.09317       -2.58667        1.46296
H          4.40669       -0.42407       -0.01041
C          3.82618        3.31629       -1.54684
C          2.85625        3.39965       -0.55524
C          2.16338        2.24200       -0.23048
C          2.43746        1.05962       -0.87116
C          3.39988        0.99160       -1.84814
C          4.11860        2.12718       -2.20470
H          4.38614        4.19453       -1.80725
H          1.41433        2.25863        0.54233
H          3.59106        0.04200       -2.31822
Pd         0.00169        0.02075        1.32405
C         -3.62729       -5.79009        0.09706
C         -2.52249       -4.73218        0.28592
C         -2.38678       -4.44746        1.79596
C         -1.19800       -5.29349       -0.25461
H         -4.59639       -5.40094        0.40904
H         -3.69993       -6.10608       -0.94317
H         -3.41731       -6.67872        0.69227
H         -3.29333       -3.98290        2.18299
H         -2.21604       -5.36911        2.35200
H         -1.55242       -3.78076        2.00726
H         -0.91183       -6.20341        0.27253
H         -1.28526       -5.52935       -1.31490
H         -0.39517       -4.56663       -0.14018
C         -4.97521       -3.26499       -4.25666
C         -5.23475       -2.18382       -3.19037
C         -5.34184       -0.81729       -3.89520
C         -6.57027       -2.47113       -2.47993
H         -4.96677       -4.26230       -3.81897
H         -5.74875       -3.24770       -5.02425
H         -4.01426       -3.10706       -4.74419
H         -5.57503       -0.02527       -3.18397
H         -4.41239       -0.56200       -4.40267
H         -6.13427       -0.82938       -4.64342
H         -6.55880       -3.44862       -1.99895
H         -6.76634       -1.72363       -1.71172
H         -7.40004       -2.45514       -3.18633
C         -6.96065        1.51704        2.58858
C         -6.42919        1.85815        1.18443
C         -6.81761        0.71523        0.22515
C         -7.08123        3.15912        0.68197
H         -8.03818        1.35467        2.56941
H         -6.48878        0.61081        2.96789
H         -6.75709        2.32067        3.29526
H         -6.39004       -0.23277        0.55132
H         -7.89991        0.59262        0.18677
H         -6.47313        0.92004       -0.78830
H         -6.87754        3.99043        1.35588
H         -6.69852        3.42535       -0.30317
H         -8.16287        3.04917        0.60570
C         -0.90941        4.21309        3.26295
C         -2.44326        4.30025        3.13452
C         -3.04980        4.10677        4.53767
C         -2.81688        5.68961        2.59029
H         -0.53753        4.94518        3.97953
H         -0.60072        3.22555        3.60592
H         -0.42463        4.41538        2.30962
H         -4.13129        4.23454        4.52758
H         -2.83287        3.10718        4.91396
H         -2.63876        4.82922        5.24260
H         -3.89790        5.80447        2.51656
H         -2.43823        6.47858        3.23987
H         -2.39601        5.83904        1.59597
C          1.60276       -5.27450        2.39547
C          2.35285       -4.21558        3.22238
C          1.36447       -3.49614        4.16084
C          3.41529       -4.92649        4.08185
H          0.80219       -4.82083        1.81467
H          2.27902       -5.77378        1.70185
H          1.15785       -6.03207        3.04040
H          0.91269       -4.19557        4.86381
H          1.87323       -2.72081        4.73309
H          0.56001       -3.02002        3.60162
H          4.12945       -5.46360        3.45796
H          3.96143       -4.21332        4.69899
H          2.95016       -5.65163        4.74956
C          6.84630       -1.27576        2.83543
C          6.41345       -1.70419        1.42151
C          6.81029       -0.59090        0.43108
C          7.14776       -2.99661        1.02036
H          6.31623       -0.37431        3.14236
H          6.63348       -2.05393        3.56744
H          7.91560       -1.06798        2.87037
H          6.52651       -0.85354       -0.58790
H          6.33309        0.35400        0.69067
H          7.88802       -0.42889        0.44204
H          6.94120       -3.80430        1.72151
H          6.83436       -3.32502        0.02952
H          8.22638       -2.84179        0.99928
C          3.49378        5.84001       -0.20428
C          2.53941        4.69943        0.19760
C          2.68300        4.45790        1.71301
C          1.09821        5.12935       -0.12620
H          3.26762        6.74779        0.35502
H          4.53041        5.57379        0.00156
H          3.40049        6.07569       -1.26422
H          3.69344        4.12969        1.95544
H          2.47980        5.36947        2.27466
H          1.99266        3.69195        2.06320
H          0.99378        5.34485       -1.18890
H          0.38761        4.34355        0.12535
H          0.82153        6.02575        0.42848
C          6.58475        2.39859       -2.53321
C          5.25221        2.08860       -3.23973
C          4.99232        3.14078       -4.33453
C          5.36572        0.70441       -3.90811
H          6.56876        3.38801       -2.07741
H          6.78127        1.67156       -1.74567
H          7.41647        2.36752       -3.23683
H          4.97814        4.14895       -3.92262
H          5.76871        3.10685       -5.09868
H          4.03386        2.96643       -4.82134
H          5.59973       -0.06770       -3.17546
H          4.43843        0.43272       -4.41108
H          6.16007        0.69950       -4.65437
H         -1.74015       -0.01091       -4.41929
H          1.75057       -0.11024       -4.41788
H         -2.25927       -1.62958       -4.87389
H         -0.84596       -0.91557       -5.64481
H          2.27428        1.49869       -4.90016
H          0.86157        0.77386       -5.66216
