45
-71.81471428
C          0.28981        0.61107        2.47554
P          0.92665        0.62268        0.76506
P         -1.61859        0.26250       -1.04197
C         -2.40338       -0.09380       -2.64904
Cl         1.84097       -2.36326        0.30765
H          0.60740       -0.29452        2.98450
H         -2.78175       -1.11205       -2.65478
Cl        -1.10843       -2.88657       -1.29201
C          0.28503        2.03327       -0.16020
C         -0.81337        1.87555       -0.97670
C         -1.31621        2.95125       -1.67933
C         -0.70381        4.18756       -1.57163
C          0.40176        4.34408       -0.75785
C          0.89736        3.26451       -0.04805
H         -2.18701        2.82058       -2.30087
H         -1.09232        5.02938       -2.12082
H          0.87797        5.30706       -0.67384
H          1.75878        3.37102        0.59161
Pd         0.05045       -1.19956       -0.37683
H         -1.67576        0.01656       -3.44802
H         -0.79576        0.64450        2.46566
H         -3.22948        0.59006       -2.82150
C         -4.45483       -0.18337        2.48064
C         -3.99223        1.06898        2.12576
C         -3.13903        1.20795        1.04594
C         -2.76067        0.09604        0.32959
C         -3.21081       -1.15416        0.68474
C         -4.06439       -1.29693        1.76279
H         -5.11920       -0.29232        3.32228
H         -4.29326        1.93661        2.68957
H         -2.76221        2.17704        0.76115
H         -2.86692       -2.01171        0.12877
H         -4.41774       -2.27510        2.04478
C          5.46354        0.50017        0.44389
C          4.68562        0.70066       -0.67911
C          3.30741        0.74187       -0.56343
C          2.71898        0.58637        0.67101
C          3.49002        0.38157        1.79249
C          4.86806        0.33977        1.67946
H          6.53711        0.46499        0.35536
H          5.14923        0.82110       -1.64439
H          2.68471        0.89228       -1.43165
H          3.01468        0.24860        2.75060
H          5.47539        0.17768        2.55480
H          0.66370        1.47552        3.01667
