59
-75.79779396
Cl         1.41972        0.50262        2.37347
P          1.47289        0.02011       -0.82462
P         -1.75105       -0.20257       -0.78866
C          0.44138        0.34031       -2.32788
H          0.13336        1.38818       -2.32709
H          1.06191        0.18362       -3.21574
C         -0.76089       -0.56073       -2.30455
H         -0.45570       -1.60986       -2.27894
H         -1.40296       -0.42425       -3.18022
C          2.62321       -1.38797       -1.18948
H          2.38365       -1.68653       -2.21952
C          2.70527        1.35386       -0.45552
H          2.39846        1.82412        0.48704
C         -3.09275       -1.43692       -0.47159
H         -3.17172       -1.52357        0.61920
C         -2.78390        1.31941       -1.04081
H         -2.61373        1.63715       -2.07652
C          4.01920       -0.73545       -1.13424
H          4.75082       -1.45778       -0.74471
H          4.36113       -0.49783       -2.15250
C          4.01785        0.56369       -0.28219
H          4.87678        1.19598       -0.54678
H          4.15883        0.30776        0.77807
C         -4.33472       -0.72916       -1.03681
H         -4.42702       -0.97331       -2.10441
H         -5.24823       -1.12026       -0.56268
C         -4.22863        0.80954       -0.85906
H         -4.57118        1.07920        0.14944
H         -4.90928        1.33159       -1.54834
C          2.44434       -2.58767       -0.26038
H          3.05579       -3.42123       -0.63380
H          1.40736       -2.93902       -0.33196
C          2.74824        2.40220       -1.56276
H          3.07234        1.91873       -2.49379
H          1.72891        2.75851       -1.76116
C         -2.80741       -2.80385       -1.08002
H         -3.71877       -3.41636       -1.03616
H         -2.59515       -2.68005       -2.14981
C         -2.41990        2.44562       -0.07562
H         -3.21806        3.20088       -0.09663
H         -2.42803        2.04719        0.94748
C          2.79460       -2.31976        1.19400
H          3.84446       -2.04796        1.31243
H          2.61334       -3.19239        1.82582
H          2.20386       -1.49983        1.59900
C          3.64415        3.58982       -1.23835
H          3.62593        4.34310       -2.02940
H          4.68373        3.28786       -1.10381
H          3.32923        4.07796       -0.31407
C         -1.66259       -3.52305       -0.38486
H         -0.75638       -2.91778       -0.39595
H         -1.42883       -4.48038       -0.85609
H         -1.89792       -3.71928        0.66298
C         -1.08369        3.10761       -0.37526
H         -1.06409        3.51902       -1.38618
H         -0.86867        3.92554        0.31614
H         -0.25952        2.39892       -0.29887
Cl        -1.78903       -0.17343        2.36020
Pd        -0.13350       -0.04710        0.84880
