111
-148.55397987
P         -1.60944        2.83409        0.06569
P         -0.57808       -0.13559        0.43709
C         -1.59676        2.08136        1.71666
C         -1.21968        0.76331        1.86595
C         -0.36082        4.19492       -0.02796
C          0.72556        3.85259       -1.02497
C         -1.93386        2.82990        2.82633
H         -2.18791        3.87056        2.70876
C         -1.91930        2.24741        4.08184
H         -2.18631        2.83083        4.94785
C         -1.55757        0.92195        4.22678
H         -1.54140        0.46951        5.20465
C         -1.19681        0.18083        3.11617
H         -0.88067       -0.84485        3.21753
Pd        -1.41481        1.04321       -1.37894
Cl        -2.53099        2.14270       -2.97633
Cl        -0.99415       -0.80435       -2.59538
C         -1.20093        5.43088       -0.40927
C         -3.15541        3.79177       -0.28509
H          0.29928        3.67910       -2.01523
H          1.45548        4.66073       -1.11316
H          1.25936        2.94478       -0.73696
H         -1.09839        5.60503       -1.48912
H         -0.79502        6.33312        0.07250
H         -3.37038        3.63148       -1.34953
C         -2.70563        5.24649       -0.06096
C         -4.32962        3.34216        0.55795
H          0.05002        4.30103        0.98461
H         -2.87866        5.51556        0.98998
H         -3.33263        5.93516       -0.64784
H         -5.23459        3.90136        0.30988
H         -4.53716        2.27977        0.41121
H         -4.13436        3.49316        1.61984
C         -0.74587       -4.67092        0.80438
C          0.18451       -3.92812        1.57550
C          0.21334       -2.55181        1.42012
C         -0.69110       -1.91205        0.61298
C         -1.66443       -2.61513       -0.04630
C         -1.73890       -3.99493        0.05031
O         -0.65846       -6.08774        0.75530
C          1.17546       -4.58855        2.54700
H          0.96006       -1.95684        1.91815
H         -2.35076       -2.06838       -0.66924
C         -2.85169       -4.73720       -0.70589
C          3.70021        1.26351       -0.26092
C          3.06286        0.43276       -1.21750
C          1.76401        0.02553       -0.96846
C          1.13031        0.35226        0.20007
C          1.77354        1.07533        1.16926
C          3.07402        1.51411        0.98710
O          4.94580        1.87381       -0.56731
C          3.73013        0.01607       -2.53670
H          1.20322       -0.51928       -1.70750
H          1.23565        1.31161        2.07023
C          3.76301        2.28786        2.12145
C          2.48329       -4.90205        1.80456
C          1.49262       -3.64085        3.72666
C          0.58671       -5.87485        3.15456
C         -4.11354       -3.85314       -0.82878
C         -2.35772       -5.08172       -2.11936
C         -3.27236       -6.01761        0.03805
C          0.20513       -6.57956       -0.26218
H          2.31257       -5.58431        0.97529
H          2.92350       -3.99142        1.39872
H          3.21157       -5.36034        2.47316
H          0.57557       -3.29656        4.20416
H          2.09179       -4.14988        4.48132
H          2.05960       -2.76895        3.40394
H         -0.36253       -5.66663        3.64710
H          0.40770       -6.62895        2.39248
H          1.26393       -6.30595        3.89146
H         -3.94593       -3.00033       -1.48486
H         -4.94354       -4.42052       -1.24923
H         -4.42307       -3.48119        0.14754
H         -2.08173       -4.17714       -2.66091
H         -1.48254       -5.72595       -2.08514
H         -3.13156       -5.59463       -2.68980
H         -4.10366       -6.50895       -0.46691
H         -2.45446       -6.73148        0.09408
H         -3.58314       -5.78527        1.05607
H         -0.35541       -7.22823       -0.93514
H          0.63526       -5.75254       -0.82854
H          1.00507       -7.16707        0.18802
C          4.83330        3.14649       -1.19276
C          3.18836       -1.35179       -3.01221
C          3.41877        1.06623       -3.61417
C          5.25189       -0.13948       -2.36586
C          5.28228        2.03993        2.12002
C          3.46834        3.78748        1.96445
C          3.23300        1.82405        3.49778
H          3.75019       -1.71215       -3.87359
H          3.27148       -2.09762       -2.22209
H          2.14455       -1.28910       -3.31610
H          3.80059        2.04496       -3.33396
H          3.86614        0.79088       -4.56881
H          2.34278        1.16022       -3.75999
H          5.72127        0.80533       -2.10412
H          5.47776       -0.85442       -1.57540
H          5.71529       -0.49355       -3.28639
H          5.76143        2.53719        2.96300
H          5.49684        0.97394        2.18819
H          5.74535        2.41522        1.21101
H          2.39579        3.97520        2.00595
H          3.94237        4.36381        2.75850
H          3.83285        4.16420        1.01187
H          2.19399        2.11337        3.64896
H          3.80999        2.27338        4.30574
H          3.30606        0.74122        3.59640
H          3.78504        3.41271       -1.33024
H          5.32203        3.90163       -0.57743
H          5.33171        3.12349       -2.16174
