100
-131.97721293
C         -1.60668        3.82223       -1.47483
C         -2.34942        2.55670       -1.48961
C         -0.21793        3.53686       -1.56902
C         -0.03379        2.06051       -1.60670
C          1.13174        1.45690       -2.31453
C         -1.41581        1.47151       -1.58434
C         -1.83527        0.06727       -1.98401
C         -0.90297       -0.64200       -2.94403
Cl         0.89036       -0.43229        2.85828
Cl        -1.79330       -2.02061        2.20822
C          3.24370        0.41570       -3.83227
C          2.51181        1.48195       -4.31639
C          2.93715       -0.12162       -2.59044
C          1.48251        1.99873       -3.57052
C          1.89266        0.36753       -1.84182
H         -3.43547        2.46440       -1.54555
H          0.58103        4.27465       -1.67393
H          0.02038       -0.92891       -2.44141
H         -1.35078       -1.55459       -3.34445
H         -0.64164       -0.00258       -3.79069
H          4.06116        0.01394       -4.40837
H          2.75114        1.90866       -5.27700
H          3.55095       -0.91716       -2.20187
H          0.90708        2.82532       -3.95036
H         -2.05324        4.82012       -1.48244
P          1.73844       -0.29307       -0.16700
H         -2.81901        0.15727       -2.46010
P         -2.13244       -0.97602       -0.49477
H         -3.43810       -3.00304       -0.31906
C         -1.68620       -3.69551       -1.35235
C         -2.74291       -2.62613       -1.06946
C         -1.21334       -4.36379       -0.05907
H         -3.38319        0.89120        0.36805
C         -4.93935       -0.57389        0.10852
C         -3.50320       -0.18606        0.46836
H         -5.02123       -1.67214        0.18723
C         -5.91768        0.04090        1.11497
H          3.58940       -1.81394       -0.38847
H          2.49170        0.78224        1.86682
C          3.50445        3.27141        1.21383
C          2.68539        2.30059        0.34416
C          2.83481        0.85204        0.82937
C          4.32031        0.45439        0.79133
C          5.17687        1.41216        1.64572
C          4.99278        2.87620        1.20234
H          3.12720        3.24247        2.24356
H          3.36823        4.30891        0.87782
H          3.04459        2.35927       -0.69077
H          1.62974        2.58741        0.29616
H          4.45856       -0.58058        1.12650
H          4.66498        0.47780       -0.24930
H          4.88570        1.31364        2.69895
H          6.23677        1.12394        1.60699
H          5.39431        3.00210        0.18892
H          5.58096        3.55362        1.83753
C          2.66707       -4.29694       -1.08679
C          1.91280       -2.95157       -1.07659
C          2.54770       -1.97179       -0.08695
C          2.55685       -2.58057        1.32408
C          3.33932       -3.90763        1.33916
C          2.74065       -4.90602        0.32856
H          3.68353       -4.13894       -1.46795
H          2.19612       -4.99882       -1.78927
H          0.87860       -3.11534       -0.76621
H          1.85435       -2.51488       -2.08252
H          2.95166       -1.86748        2.05926
H          1.52467       -2.77296        1.63775
H          4.38806       -3.71362        1.08234
H          3.35847       -4.33690        2.35066
H          1.73407       -5.19179        0.65685
H          3.31932       -5.84054        0.31828
H         -0.83103       -3.19391       -1.83504
C         -2.22112       -4.74872       -2.32776
H         -3.32417       -0.42597        1.51678
C         -5.31821       -0.16968       -1.31637
H         -3.33138       -2.43329       -1.96792
H         -0.80725       -3.64232        0.64890
H         -0.44942       -5.11720       -0.25486
H         -2.04404       -4.86639        0.43698
H         -1.46795       -5.50651       -2.54965
H         -3.08679       -5.25895       -1.90425
H         -2.53304       -4.30017       -3.27239
H         -5.86941        1.12980        1.07994
H         -6.94766       -0.25001        0.90271
H         -5.68638       -0.26505        2.13653
H         -5.20415        0.90523       -1.45591
H         -4.70308       -0.67139       -2.06207
H         -6.35862       -0.41678       -1.53399
Fe        -1.04445        2.68425        0.07374
C         -2.45866        3.07053        1.56491
C         -1.61604        4.22761        1.32598
C         -0.23669        3.85377        1.57533
C         -0.22892        2.44961        1.93484
C         -1.59464        1.96957        1.93983
H         -3.54939        3.04744        1.51304
H         -1.96755        5.22963        1.06909
H          0.62961        4.51778        1.53026
H          0.63002        1.87327        2.27830
H         -1.90548        0.97879        2.27438
Pd        -0.26476       -0.89530        0.96643
