58
-89.86708852
P          1.72240       -0.01845        0.75806
C          1.92992        1.76507        0.70459
C          3.02956        2.33459        1.30555
C          3.18231        3.70990        1.29864
C          2.22617        4.50585        0.69900
C          1.11806        3.93074        0.10983
C          0.97184        2.55609        0.11547
H          0.10109        2.09978       -0.32182
H          3.76229        1.70126        1.78057
C          3.22798       -0.86298        0.25496
C          3.37497       -2.20460        0.52603
C          4.51586       -2.86925        0.11234
C          5.49837       -2.18704       -0.57750
C          5.34128       -0.84444       -0.85864
C          4.19990       -0.18301       -0.44303
H          4.05556        0.85978       -0.67477
H          2.59279       -2.73142        1.04898
C          1.31630       -0.47443        2.48771
C          0.08220        0.25005        3.00677
C         -1.22812       -0.40117        2.59343
P         -1.67725       -0.22116        0.81759
C         -3.03613       -1.35590        0.52459
C         -4.30335       -0.87219        0.29310
C         -5.34364       -1.75404        0.06196
C         -5.10502       -3.11434        0.06391
C         -3.83106       -3.59454        0.29589
C         -2.79250       -2.71011        0.52748
H         -1.79030       -3.06923        0.70224
H         -4.47218        0.19255        0.28918
C         -2.14409        1.46269        0.39587
C         -2.35981        1.75585       -0.93164
C         -2.68702        3.04363       -1.31247
C         -2.79848        4.03265       -0.35574
C         -2.58736        3.73503        0.97629
C         -2.25969        2.44515        1.35345
H         -2.09287        2.20643        2.39064
H         -2.25859        0.96996       -1.66306
Pd         0.03067       -0.67631       -0.68556
Cl         1.63084       -0.96266       -2.23976
Cl        -1.59603       -1.20736       -2.15235
H         -1.20076       -1.47192        2.80454
H         -2.07193        0.00223        3.15827
H          0.12603        0.29932        4.10620
H          0.10339        1.29516        2.66997
H          1.19137       -1.55666        2.54714
H          2.20396       -0.22191        3.07313
H          4.04499        4.15827        1.76345
H          0.36329        4.54957       -0.34677
H          4.63361       -3.91951        0.32303
H          6.10236       -0.31360       -1.40658
H         -6.33703       -1.37927       -0.12237
H         -3.64408       -4.65579        0.29280
H         -2.85079        3.27352       -2.35239
H         -2.67464        4.50784        1.72225
H          2.34267        5.57737        0.69515
H          6.38573       -2.70489       -0.90332
H         -5.91413       -3.80259       -0.11867
H         -3.05130        5.03857       -0.64888
