45
-71.81514319
C          0.31296        0.60635        2.47302
P          0.94181        0.62363        0.75986
P         -1.61911        0.26391       -1.05753
C         -2.40474       -0.08002       -2.66664
Cl         1.75168       -2.37176        0.47912
H         -0.77267        0.63967        2.46793
H         -3.23428        0.60170       -2.83082
Cl        -1.09149       -2.86880       -1.32921
C          0.28968        2.03176       -0.16324
C         -0.80985        1.87520       -0.97925
C         -1.31509        2.95309       -1.67670
C         -0.70492        4.19015       -1.56503
C          0.40140        4.34539       -0.75220
C          0.89968        3.26375       -0.04742
H         -2.18649        2.82357       -2.29773
H         -1.09575        5.03339       -2.11039
H          0.87617        5.30880       -0.66511
H          1.76196        3.36937        0.59131
Pd         0.05291       -1.18762       -0.38542
H         -2.77845       -1.09989       -2.68189
H          0.68933        1.46884        3.01557
H         -1.67905        0.04171       -3.46571
C         -4.44754       -0.20993        2.46749
C         -3.98151        1.04458        2.12488
C         -3.13106        1.19234        1.04406
C         -2.75902        0.08698        0.31439
C         -3.21208       -1.16553        0.65759
C         -4.06304       -1.31703        1.73655
H         -5.10972       -0.32573        3.30994
H         -4.27774        1.90704        2.69905
H         -2.75147        2.16311        0.76883
H         -2.87149       -2.01840        0.09246
H         -4.41863       -2.29704        2.00919
C          5.47617        0.49120        0.41042
C          4.69208        0.69631       -0.70746
C          3.31467        0.74043       -0.58359
C          2.73323        0.58341        0.65404
C          3.51042        0.37415        1.77042
C          4.88765        0.32919        1.64912
H          6.54913        0.45378        0.31549
H          5.15036        0.81849       -1.67508
H          2.68725        0.89508       -1.44766
H          3.04035        0.23969        2.73093
H          5.49974        0.16339        2.52045
H          0.63284       -0.30114        2.97711
