64
-97.20966186
Cl        -1.55640       -1.46773       -2.58124
Cl         1.57139       -1.52066       -2.93226
P          1.93060       -0.63885        0.26126
C          2.17191       -2.32096        0.99544
C          3.69718       -0.19918       -0.09864
P         -1.26786       -0.12752        0.40101
C          1.26367        0.56243        1.46443
C         -0.15987        0.82184        1.51056
C         -0.39065        1.91687        2.44218
C          0.89836        2.34445        2.95625
C          1.92207        1.51629        2.34317
H         -1.35594        2.36131        2.68810
H          1.06863        3.15020        3.67332
Pd         0.19047       -0.97189       -1.25581
H          2.99837        1.58796        2.51247
C         -4.86004        2.44376       -0.71869
C         -4.14724        1.79977       -1.71026
C         -3.07012        1.00193       -1.37438
C         -2.69895        0.86288       -0.05631
C         -3.42163        1.48558        0.93609
C         -4.50378        2.28183        0.60556
H         -5.70204        3.06480       -0.97778
H         -4.43446        1.91065       -2.74305
H         -2.53217        0.46014       -2.13343
H         -3.14689        1.33358        1.96725
H         -5.06785        2.77320        1.38129
C         -2.72827       -3.92865        2.41336
C         -2.35294       -2.84346        3.18161
C         -1.91348       -1.68393        2.56806
C         -1.85116       -1.62206        1.19523
C         -2.22866       -2.69746        0.42618
C         -2.66839       -3.85779        1.03515
H         -3.07057       -4.83242        2.89062
H         -2.40134       -2.89893        4.25674
H         -1.61394       -0.82784        3.15161
H         -2.17453       -2.61823       -0.64768
H         -2.96311       -4.70306        0.43521
C          3.99328       -0.18848       -1.58192
H          3.86921        0.79533        0.33364
C          4.48445       -1.28003        0.66849
H          4.73369       -0.91765        1.67661
C          3.67266       -2.59832        0.78170
H          5.44822       -1.45910        0.16990
C          1.75507       -2.32201        2.45012
H          1.55198       -3.01806        0.41505
H          4.05362       -3.21963        1.60506
H          3.81702       -3.19429       -0.13124
H          2.34445       -1.59949        3.01822
H          0.70435       -2.04743        2.56225
H          1.89825       -3.30330        2.90869
H          3.36869        0.53100       -2.11384
H          5.03762        0.06260       -1.78023
H          3.80289       -1.17131       -2.01575
Fe         0.83726        2.45135        0.87678
C          0.01963        4.07135       -0.09163
C         -0.17115        2.85572       -0.86136
C          1.13176        2.29180       -1.15530
C          2.13340        3.14328       -0.54221
C          1.44760        4.24332        0.11541
H         -0.76974        4.73534        0.26794
H         -1.13002        2.45785       -1.19432
H          1.32238        1.41129       -1.77116
H          3.21576        3.00878       -0.60398
H          1.92384        5.06962        0.64841
