171
-217.83861017
P         -1.68490        0.67334        0.24532
P          1.50362       -0.14905       -0.29381
C         -0.97169        1.77887       -0.99050
C          0.63552       -0.89397       -1.68503
C         -0.32810        1.34855       -2.14471
C          0.27361        2.30845       -2.98045
C          0.19011        3.64936       -2.64527
C         -0.45779        4.05746       -1.49947
C         -1.02944        3.11415       -0.66798
C          0.82639       -2.21914       -1.98895
C          0.15843       -2.78993       -3.05417
C         -0.70499       -2.02392       -3.80975
C         -0.91510       -0.68541       -3.51909
C         -0.20963       -0.10038       -2.44995
Cl         2.12370        1.28815        2.57147
Cl        -0.92027        0.50299        3.48775
C         -1.85966        0.11681       -4.34426
C          1.01892        1.91874       -4.20880
H         -0.51065        5.10402       -1.24758
H         -1.51835        3.41580        0.24676
H          1.50681       -2.80693       -1.39716
H          0.30861       -3.83053       -3.29117
H          0.65273        4.37740       -3.29029
H         -1.22059       -2.46455       -4.64587
C         -2.82864       -3.57813       -0.83541
C         -1.80241       -3.39119        0.08366
C         -1.43033       -2.08697        0.38386
C         -2.06649       -1.02379       -0.21365
C         -3.09086       -1.22949       -1.10466
C         -3.49722       -2.51679       -1.43174
H         -3.13512       -4.57618       -1.08564
H         -0.64836       -1.90216        1.09861
H         -3.58277       -0.37353       -1.53182
C         -5.64603        2.47462        1.50561
C         -5.30845        2.44190        0.15842
C         -4.07474        1.90424       -0.18708
C         -3.22888        1.42013        0.78089
C         -3.58005        1.46191        2.10564
C         -4.79987        1.99549        2.49787
H         -6.59804        2.88358        1.79043
H         -3.75946        1.86207       -1.21589
H         -2.88396        1.07962        2.82896
C          3.98806       -3.41026        1.69640
C          2.99740       -2.80061        2.45348
C          2.23155       -1.81462        1.84765
C          2.46876       -1.43229        0.54779
C          3.47481       -2.03082       -0.17183
C          4.24723       -3.04328        0.38319
H          4.57683       -4.19017        2.14333
H          1.44979       -1.33613        2.40583
H          3.65052       -1.70684       -1.18176
C          4.43316        2.88554       -1.95536
C          3.72580        3.20739       -0.80309
C          2.83889        2.26541       -0.30248
C          2.65740        1.06462       -0.93868
C          3.34851        0.77106       -2.08918
C          4.26056        1.67685       -2.61891
H          5.15159        3.58337       -2.34169
H          2.30019        2.46179        0.60690
H          3.15740       -0.16644       -2.58176
Pd         0.23408        0.61852        1.56395
C         -1.32620       -4.38608        2.33068
C         -1.12983       -4.56440        0.81377
C          0.37196       -4.58997        0.48375
C         -1.73764       -5.91918        0.40183
H         -0.89087       -5.21859        2.88267
H         -0.85925       -3.46812        2.68370
H         -2.38651       -4.33631        2.57745
H          0.87506       -5.40289        1.00672
H          0.52810       -4.73341       -0.58472
H          0.85281       -3.65866        0.77494
H         -1.25576       -6.73707        0.93747
H         -2.80252       -5.95753        0.63067
H         -1.60443       -6.10106       -0.66448
C         -4.17804       -3.55571       -3.61223
C         -4.67684       -2.78504       -2.37779
C         -5.33776       -1.47380       -2.84785
C         -5.74011       -3.62048       -1.63977
H         -3.43722       -2.97176       -4.15593
H         -3.71731       -4.50136       -3.32882
H         -4.99970       -3.77417       -4.29410
H         -6.18008       -1.67968       -3.50812
H         -5.71452       -0.90064       -2.00084
H         -4.63313       -0.85223       -3.39869
H         -6.60652       -3.79905       -2.27640
H         -5.34544       -4.58959       -1.33726
H         -6.08107       -3.10276       -0.74335
C         -5.71214        2.85842       -2.31974
C         -6.29122        2.97128       -0.89522
C         -6.59555        4.45330       -0.60957
C         -7.59201        2.15007       -0.83162
H         -4.79035        3.43214       -2.41511
H         -5.50168        1.82066       -2.57752
H         -6.41789        3.24322       -3.05576
H         -7.27541        4.86287       -1.35648
H         -7.05860        4.58202        0.36800
H         -5.67969        5.04386       -0.62656
H         -8.06792        2.23771        0.14440
H         -8.30520        2.48971       -1.58250
H         -7.38954        1.09432       -1.01122
C         -4.14351        1.48997        4.90450
C         -5.22915        2.06071        3.97052
C         -6.51718        1.23896        4.16065
C         -5.48500        3.52784        4.36145
H         -3.21248        2.04871        4.81183
H         -4.45973        1.54620        5.94592
H         -3.94078        0.44354        4.67774
H         -6.35794        0.20148        3.86727
H         -6.83698        1.25016        5.20248
H         -7.33286        1.63567        3.55729
H         -5.77187        3.60784        5.40983
H         -4.58785        4.12781        4.21011
H         -6.28412        3.96411        3.76334
C          1.69290       -2.36201        4.59690
C          2.79051       -3.20762        3.91961
C          4.10525       -2.99660        4.69358
C          2.38175       -4.68957        3.98468
H          1.94517       -1.30194        4.57501
H          0.73033       -2.49591        4.10552
H          1.57081       -2.65054        5.64064
H          3.98347       -3.25116        5.74626
H          4.90656       -3.61574        4.29224
H          4.42319       -1.95596        4.63228
H          3.15045       -5.33121        3.55547
H          2.21969       -5.00494        5.01523
H          1.45892       -4.85843        3.43182
C          5.49692       -3.17323       -1.83018
C          5.34635       -3.76045       -0.41265
C          4.98510       -5.25179       -0.53693
C          6.69144       -3.60783        0.32107
H          6.28585       -3.68620       -2.38002
H          4.57460       -3.28162       -2.40075
H          5.75738       -2.11580       -1.78946
H          4.02493       -5.37408       -1.03815
H          5.73819       -5.78947       -1.11272
H          4.91303       -5.72387        0.44228
H          7.49605       -4.08763       -0.23592
H          6.94556       -2.55492        0.44199
H          6.65736       -4.05982        1.31155
C          2.54579        5.26394        0.00646
C          3.90205        4.53748       -0.05798
C          4.91599        5.45768       -0.76381
C          4.40601        4.25426        1.36955
H          2.63811        6.21913        0.52284
H          2.16655        5.45736       -0.99661
H          1.80262        4.66921        0.53641
H          5.02020        6.40093       -0.22772
H          5.90137        4.99435       -0.80919
H          4.59441        5.68889       -1.77920
H          5.35379        3.71712        1.34335
H          4.55752        5.18161        1.92148
H          3.69439        3.64696        1.92763
C          4.62559        0.06149       -4.55214
C          5.12143        1.33915       -3.84567
C          6.57156        1.11457       -3.38187
C          5.07967        2.49702       -4.86192
H          3.58563        0.16299       -4.86113
H          5.21819       -0.14184       -5.44398
H          4.70884       -0.80810       -3.90106
H          7.21653        0.85964       -4.22259
H          6.97395        2.00957       -2.90817
H          6.62272        0.30200       -2.65738
H          4.05827        2.69747       -5.18241
H          5.48637        3.41533       -4.44105
H          5.66597        2.25520       -5.74833
H         -1.34641        0.57588       -5.18997
H          1.17341        0.84060       -4.26160
H         -2.31898        0.91206       -3.75485
H         -2.66233       -0.50592       -4.74147
H          2.00054        2.39275       -4.22561
H          0.48191        2.22855       -5.10647
