111
-148.55176806
P         -2.66491        1.91849        0.05628
P          0.15575        0.51624        0.45273
C         -1.84154        1.96778        1.67622
C         -0.59623        1.39767        1.83157
C         -3.74576        3.40625       -0.17302
C         -3.42133        4.14377       -1.45305
C         -2.46160        2.56142        2.75772
H         -3.44439        2.98763        2.64171
C         -1.82683        2.59089        3.98755
H         -2.31119        3.05561        4.83082
C         -0.57661        2.02237        4.13709
H         -0.08410        2.04203        5.09533
C          0.03824        1.41756        3.05582
H          1.00537        0.95065        3.15902
Pd        -1.00197        1.25557       -1.41155
Cl        -2.38696        1.71388       -3.10969
Cl         0.71727        0.52686       -2.66396
C         -5.16786        2.80722       -0.14010
C         -3.92145        0.56654       -0.08059
H         -4.02819        5.04573       -1.56205
H         -2.36928        4.43588       -1.48851
H         -3.61757        3.51182       -2.31997
H         -5.83085        3.40122       -0.78600
H         -5.58753        2.89373        0.87294
H         -3.55328       -0.13625       -0.84093
C         -5.17726        1.31381       -0.57366
C         -4.10392       -0.13765        1.24619
H         -3.57065        4.06133        0.69067
H         -6.07817        0.80629       -0.19889
H         -5.23777        1.25542       -1.67051
H         -3.16414       -0.56924        1.59644
H         -4.44783        0.56267        2.00967
H         -4.83994       -0.94223        1.17665
C         -1.40925       -3.76095        0.45233
C         -0.89281       -3.19320       -0.73995
C         -0.42485       -1.89300       -0.69279
C         -0.39348       -1.18999        0.48193
C         -0.78423       -1.77345        1.65822
C         -1.26116       -3.07358        1.68481
O         -2.11205       -4.99412        0.40525
C         -0.88013       -3.93657       -2.08384
H         -0.08991       -1.39553       -1.58593
H         -0.72957       -1.18847        2.55940
C         -1.64153       -3.70382        3.03377
C          4.68734        0.83508        0.14519
C          3.94373        1.92879        0.65923
C          2.56468        1.81180        0.72958
C          1.93893        0.64004        0.39321
C          2.66308       -0.45332       -0.00321
C          4.04266       -0.40290       -0.10458
O          6.06651        0.99192       -0.15557
C          4.60812        3.23914        1.11047
H          1.95506        2.64213        1.04183
H          2.12849       -1.35277       -0.25340
C          4.80213       -1.67100       -0.52417
C          0.31149       -3.47059       -2.95222
C         -0.72020       -5.45366       -1.87983
C         -2.18412       -3.63505       -2.83832
C         -3.11188       -3.38940        3.34908
C         -1.41720       -5.22689        3.01647
C         -0.76145       -3.13238        4.16860
C         -3.51049       -4.85191        0.18879
H          1.24779       -3.55006       -2.40075
H          0.39872       -4.08265       -3.84954
H          0.19401       -2.43907       -3.28063
H         -1.56567       -5.87307       -1.34043
H         -0.64910       -5.97219       -2.83562
H          0.18150       -5.67059       -1.30808
H         -3.05231       -3.96228       -2.27106
H         -2.28803       -2.56447       -3.01428
H         -2.20241       -4.13928       -3.80407
H         -3.41051       -3.83280        4.29863
H         -3.27075       -2.31357        3.41621
H         -3.77244       -3.77439        2.57590
H         -1.62167       -5.66445        3.99330
H         -2.06744       -5.71550        2.29514
H         -0.38704       -5.45992        2.74916
H          0.29615       -3.22803        3.92404
H         -0.97672       -2.08148        4.35624
H         -0.93891       -3.66637        5.10187
H         -3.79290       -5.36482       -0.73041
H         -4.05635       -5.30769        1.01474
H         -3.77882       -3.79728        0.11320
C          6.32101        1.43552       -1.48259
C          3.77884        3.91455        2.22656
C          6.01038        2.97896        1.69058
C          4.69945        4.20139       -0.08338
C          4.06570       -2.93680       -0.02763
C          4.88712       -1.72380       -2.05724
C          6.21328       -1.70494        0.08983
H          2.82251        4.27901        1.85457
H          3.58713        3.21810        3.04248
H          4.30980        4.77306        2.63724
H          5.95979        2.26238        2.50969
H          6.68328        2.57706        0.93719
H          6.45399        3.89865        2.07117
H          3.70843        4.41358       -0.48381
H          5.15466        5.14671        0.21089
H          5.29650        3.77712       -0.88692
H          4.66384       -3.82911       -0.21092
H          3.87222       -2.87766        1.04310
H          3.11561       -3.07973       -0.54000
H          5.41567       -0.85965       -2.45258
H          5.41006       -2.62026       -2.38930
H          3.89022       -1.73092       -2.49759
H          6.72571       -2.63454       -0.15666
H          6.16127       -1.62361        1.17503
H          6.82596       -0.88516       -0.27635
H          5.38304        1.59505       -2.01608
H          6.88686        2.36658       -1.45424
H          6.91691        0.69116       -2.01035
