75
-122.81204155
P          1.80522       -0.62901        0.09807
C          3.10224       -1.35340       -0.92057
C          4.39743       -1.33282       -0.45491
C          5.40828       -1.90720       -1.20417
C          5.11234       -2.50858       -2.41106
C          3.80912       -2.54375       -2.86534
C          2.80082       -1.96923       -2.11354
H          1.77912       -1.99830       -2.45593
H          3.57667       -3.01731       -3.80503
H          5.89890       -2.95514       -2.99721
H          6.42367       -1.88800       -0.84380
H          4.61016       -0.88365        0.50258
C          1.78058       -1.57448        1.63249
C          1.42583       -0.97450        2.81882
C          1.49625       -1.68519        4.00224
C          1.91621       -3.00023        3.98941
C          2.26240       -3.60416        2.79700
C          2.19661       -2.88664        1.61619
H          2.47977       -3.34148        0.68043
H          2.58718       -4.63156        2.78552
H          1.96709       -3.55801        4.91020
H          1.21495       -1.21535        4.93030
H          1.07591        0.04368        2.81041
C          2.17090        1.09314        0.49288
C          3.33787        1.74098        0.16128
C          3.49743        3.09267        0.43207
C          2.45385        3.78061        1.04998
C          1.27330        3.14885        1.37174
C          1.12497        1.78168        1.08963
O         -0.07518        1.10653        1.36469
C         -1.25586        1.79743        1.04767
C         -1.41035        3.15854        1.35508
C         -2.58774        3.79642        1.03181
C         -3.62454        3.12228        0.38729
C         -3.44195        1.78834        0.04875
C         -2.27675        1.13795        0.38027
P         -1.90802       -0.53518       -0.15887
C         -1.60022       -1.61774        1.24009
C         -1.88090       -1.19822        2.52016
C         -1.75691       -2.08357        3.57502
C         -1.35816       -3.38419        3.33747
C         -1.07929       -3.80052        2.05068
C         -1.20494       -2.91318        0.99678
H         -1.01192       -3.22755       -0.01711
H         -0.76498       -4.81458        1.86634
H         -1.25721       -4.07413        4.15926
H         -1.97021       -1.75781        4.57974
H         -2.19932       -0.18198        2.68685
C         -3.35185       -1.22092       -1.00093
C         -3.55363       -1.06662       -2.35243
C         -4.67490       -1.60401       -2.95414
C         -5.59912       -2.29185       -2.19408
C         -5.40352       -2.43853       -0.83551
C         -4.27757       -1.89945       -0.23961
H         -4.11420       -2.00697        0.82089
H         -6.12549       -2.97220       -0.23948
H         -6.47554       -2.71115       -2.66077
H         -4.82982       -1.48017       -4.01342
H         -2.84278       -0.50350       -2.93052
Pd         0.05866       -0.01619       -1.39815
Cl        -1.39528        1.02589       -2.77327
Cl         1.71764        0.89412       -2.63563
H         -4.20538        1.26240       -0.49808
C         -4.87137        3.83601        0.00396
H         -4.77925        4.26426       -0.99491
H         -5.09090        4.64676        0.69982
H         -5.72677        3.15917        0.00269
H         -2.69883        4.83955        1.26998
S         -0.07098        4.02061        2.13483
H          2.56353        4.82742        1.27192
C          4.76765        3.78554        0.08787
H          4.12259        1.20324       -0.33957
H          5.50948        3.64858        0.87564
H          5.18599        3.39615       -0.84124
H          4.60955        4.85663       -0.04413
