105
-153.07000784
Cl         0.52433        2.07317        3.01699
Pd        -0.33648        1.35982        1.05838
P         -1.23264        0.75305       -0.99073
N         -0.20723       -0.35509       -1.88599
C          0.31520       -1.62001       -1.65086
C          0.23192       -2.30156       -0.41126
C          0.91124       -3.52550       -0.24412
C          0.81953       -4.22461        1.09262
C          1.33166       -5.67373        1.09451
C          2.63064       -5.80063        0.29329
C          2.41269       -5.36415       -1.16319
C          1.64634       -4.07280       -1.29739
C          1.67438       -3.41271       -2.51837
C          1.02570       -2.21797       -2.69177
H          1.08782       -1.70562       -3.63616
H          2.23402       -3.84353       -3.33135
H          3.37711       -5.25891       -1.67666
H          3.40205       -5.16937        0.75186
H          1.47230       -6.03669        2.12244
H          1.38006       -3.63498        1.82755
C         -0.67926       -1.86442        0.67352
C         -0.14822       -1.30854        1.87323
C         -1.00557       -1.14900        2.96797
C         -2.32988       -1.49398        2.88235
C         -2.85837       -2.04775        1.72218
C         -4.30460       -2.46568        1.70981
C         -4.56871       -3.63354        0.74905
C         -4.01810       -3.31209       -0.64367
C         -2.51094       -3.00126       -0.60601
C         -2.03073       -2.25078        0.61654
H         -1.94719       -3.93966       -0.67015
H         -4.55777       -2.44888       -1.04731
H         -5.64119       -3.87065        0.70308
H         -4.91819       -1.60307        1.42587
H         -2.97767       -1.34190        3.72889
H         -0.61739       -0.71039        3.87034
N          1.17695       -0.85933        1.96763
P          1.74486        0.21216        0.67912
C          2.92659       -0.65768       -0.35392
C          3.25276       -0.19274       -1.60524
C          4.20188       -0.86215       -2.35605
C          4.84347       -1.98449       -1.84839
C          4.51350       -2.42487       -0.57393
C          3.56051       -1.75650        0.17308
H          3.29691       -2.08966        1.16405
H          5.00153       -3.29677       -0.17345
C          5.83197       -2.73071       -2.67460
H          4.44777       -0.51776       -3.34601
H          2.76433        0.68671       -1.99045
C          2.69563        1.59939        1.30726
C          3.54530        1.43257        2.37354
C          4.28362        2.50795        2.83369
C          4.17315        3.75260        2.22757
C          3.32487        3.89263        1.13718
C          2.58798        2.81684        0.67692
H          1.92582        2.92247       -0.16830
H          3.24328        4.84995        0.65142
C          4.98155        4.90574        2.71134
H          4.95098        2.38636        3.66969
H          3.63050        0.46405        2.83952
H          1.42135       -0.40204        2.83704
H         -0.22212       -0.04049       -2.84826
C         -1.01628        2.36429       -1.75067
C         -2.01896        3.30276       -1.69457
C         -1.80997        4.56181       -2.22727
C         -0.59518        4.88841       -2.81591
C          0.41084        3.93194       -2.84682
C          0.19800        2.67275       -2.31612
H          0.97646        1.92840       -2.33293
H          1.36261        4.18063       -3.28444
C         -0.35823        6.25450       -3.35909
H         -2.58878        5.30361       -2.17969
H         -2.95393        3.05214       -1.21996
C         -2.94194        0.29278       -1.29493
C         -3.26183       -0.22304       -2.52897
C         -4.57791       -0.52528       -2.83196
C         -5.58360       -0.31315       -1.89853
C         -5.24449        0.22594       -0.66545
C         -3.92948        0.52785       -0.36882
H         -3.66976        0.97444        0.57504
H         -6.01909        0.41593        0.05779
C         -7.00254       -0.62520       -2.22404
H         -4.83100       -0.92882       -3.79742
H         -2.48060       -0.38354       -3.25442
Cl        -2.31985        2.24358        1.63846
H          1.87378       -6.14840       -1.70805
H          0.56979       -6.32897        0.65380
H          3.02156       -6.82688        0.34169
H         -0.22269       -4.19802        1.43459
H         -4.22678       -4.13523       -1.34136
H         -2.22145       -2.43280       -1.49791
H         -4.61737       -2.72814        2.72846
H         -4.08055       -4.53803        1.13332
H          6.36701       -2.06079       -3.34911
H          6.57220       -3.23019       -2.04800
H          5.33485       -3.49082       -3.27894
H          4.46361        5.84983        2.53682
H          5.17541        4.82867        3.78208
H          5.94257        4.94833        2.19697
H          0.33899        6.22917       -4.19773
H         -1.28662        6.70384       -3.71436
H          0.06041        6.90822       -2.59271
H         -7.50866        0.25157       -2.63021
H         -7.07094       -1.42580       -2.96194
H         -7.54736       -0.94759       -1.33551
