87
-129.17822071
P         -1.67619       -0.36390        0.32403
P          1.61430        0.34163       -0.16559
C         -1.46428        0.95462       -0.90162
C          1.21741       -0.68149       -1.58716
C         -0.64345        0.90438       -2.02648
C         -0.49291        2.06653       -2.80720
C         -1.18663        3.21354       -2.46220
C         -2.00184        3.24377       -1.35236
C         -2.12856        2.11276       -0.56890
C          1.99903       -1.76269       -1.91254
C          1.69994       -2.51744       -3.02991
C          0.61598       -2.18093       -3.81468
C         -0.18680       -1.09632       -3.50055
C          0.12766       -0.31944       -2.36777
Cl         1.58311        1.69429        2.73890
Cl        -1.02478       -0.14497        3.48768
H         -2.52598        4.14735       -1.08758
H         -2.74047        2.13204        0.32095
H          2.85037       -2.00921       -1.30026
H          2.31089       -3.36728       -3.28652
H         -1.06888        4.09652       -3.06730
H          0.38043       -2.76803       -4.68604
C         -0.43893       -4.63543       -0.62507
C         -1.24520       -3.95687       -1.52812
C         -1.62131       -2.65109       -1.23280
C         -1.19182       -2.04815       -0.07435
C         -0.42984       -2.74453        0.83526
C         -0.03916       -4.03947        0.55437
H         -0.13759       -5.64446       -0.84959
C         -1.68756       -4.61775       -2.78617
H         -2.24520       -2.10128       -1.91662
H         -0.18061       -2.28437        1.77849
H          0.56284       -4.58735        1.26078
C         -6.09818       -0.44220        1.39230
C         -5.16177       -0.37570        2.40495
C         -3.81631       -0.35251        2.09604
C         -3.41480       -0.39195        0.78288
C         -4.34495       -0.45983       -0.22902
C         -5.70447       -0.49295        0.06203
H         -7.14856       -0.45414        1.62881
H         -5.47900       -0.34022        3.43431
H         -3.07163       -0.29906        2.87133
H         -4.01399       -0.47988       -1.25460
C         -6.71232       -0.53789       -1.03214
C          5.01393       -1.55006        2.20615
C          5.13687       -0.25250        1.74960
C          4.11286        0.32234        1.02073
C          2.97585       -0.40306        0.75333
C          2.85005       -1.69330        1.21179
C          3.87030       -2.29064        1.94024
H          5.80790       -1.99715        2.77967
H          6.02734        0.31450        1.96630
H          4.18978        1.33846        0.66980
H          1.95132       -2.24590        1.00175
C          3.71234       -3.68201        2.44435
C          2.77683        4.46269       -1.68333
C          3.38797        3.33658       -2.19914
C          3.03979        2.08502       -1.72561
C          2.09267        1.97387       -0.73488
C          1.48753        3.09335       -0.21387
C          1.81231        4.35718       -0.69059
H          3.04576        5.43830       -2.05089
H          4.13125        3.43158       -2.97364
H          3.49366        1.19295       -2.12829
H          0.75228        2.98839        0.56576
C          1.15968        5.56684       -0.12076
Pd         0.12319        0.38995        1.64269
C          0.41108        2.09884       -3.99093
C         -1.35416       -0.76901       -4.36467
H          1.11176        1.26337       -3.98315
H         -0.16041        2.05316       -4.91868
H          0.99965        3.01732       -4.00397
H         -1.03062       -0.29370       -5.29143
H         -1.91031       -1.66999       -4.62719
H         -2.04483       -0.09145       -3.86109
H         -0.83079       -4.88065       -3.40820
H         -2.24107       -5.53272       -2.57043
H         -2.33741       -3.96543       -3.37098
H         -7.61728       -1.05699       -0.71311
H         -6.99293        0.46987       -1.34157
H         -6.32100       -1.06151       -1.90566
H          4.65753       -4.08118        2.81470
H          2.98972       -3.71714        3.26091
H          3.35867       -4.34473        1.65306
H          1.14511        6.38492       -0.84229
H          0.12720        5.35705        0.16284
H          1.68989        5.90957        0.76878
