87
-129.17895846
P         -1.66291       -0.36419        0.31457
P          1.60698        0.33058       -0.16586
C         -1.45467        0.95134       -0.91396
C          1.21986       -0.69102       -1.59131
C         -0.63692        0.89642       -2.04071
C         -0.48841        2.05552       -2.82643
C         -1.18167        3.20372       -2.48442
C         -1.99371        3.23845       -1.37235
C         -2.11804        2.11069       -0.58389
C          2.00283       -1.77237       -1.91289
C          1.70851       -2.52780       -3.03102
C          0.62763       -2.19205       -3.82029
C         -0.17608       -1.10690       -3.51059
C          0.13425       -0.32862       -2.37756
Cl         1.55553        1.69878        2.77153
Cl        -1.00797       -0.09659        3.52041
H         -2.51713        4.14306       -1.10968
H         -2.72745        2.13350        0.30756
H          2.85169       -2.01866       -1.29718
H          2.32050       -3.37783       -3.28449
H         -1.06606        4.08408       -3.09374
H          0.39549       -2.77991       -4.69205
C         -0.45604       -4.63881       -0.65971
C         -1.27183       -3.95423       -1.54955
C         -1.63671       -2.64715       -1.24610
C         -1.18965       -2.04975       -0.09141
C         -0.41835       -2.75206        0.80581
C         -0.03740       -4.04793        0.51574
H         -0.16178       -5.64831       -0.89141
C         -1.73159       -4.60789       -2.80512
H         -2.26541       -2.09186       -1.92108
H         -0.15287       -2.29598        1.74649
H          0.57207       -4.60044        1.21205
C         -6.07831       -0.42440        1.41107
C         -5.13511       -0.36059        2.41759
C         -3.79155       -0.34264        2.10008
C         -3.39871       -0.38525        0.78441
C         -4.33564       -0.45020       -0.22139
C         -5.69338       -0.47755        0.07835
H         -7.12719       -0.43189        1.65433
H         -5.44558       -0.32253        3.44891
H         -3.04166       -0.28864        2.87039
H         -4.01150       -0.47186       -1.24911
C         -6.70830       -0.51849       -1.00942
C          5.01707       -1.53507        2.21236
C          5.12418       -0.23236        1.76675
C          4.09655        0.33325        1.03579
C          2.97148       -0.40602        0.75584
C          2.86116       -1.70131        1.20414
C          3.88629       -2.29011        1.93282
H          5.81344       -1.97517        2.78797
H          6.00490        0.34578        1.99366
H          4.16121        1.35306        0.69310
H          1.97114       -2.26463        0.98584
C          3.74587       -3.68633        2.42854
C          2.74934        4.46018       -1.67555
C          3.35924        3.33739       -2.20001
C          3.02085        2.08363       -1.72524
C          2.08021        1.96658       -0.72904
C          1.47670        3.08279       -0.19918
C          1.80523        4.35014       -0.66390
H          3.00191        5.43666       -2.05230
H          4.09154        3.43647       -2.98439
H          3.47366        1.19405       -2.13458
H          0.73887        2.97255        0.57725
C          1.11879        5.55288       -0.11978
Pd         0.12507        0.38152        1.64821
C          0.41335        2.08353       -4.01196
C         -1.34101       -0.78217       -4.37896
H          0.99814        3.00429       -4.03230
H          1.11746        1.25100       -3.99967
H         -0.15955        2.02930       -4.93838
H         -1.01429       -0.31797       -5.31023
H         -1.90137       -1.68304       -4.63280
H         -2.02876       -0.09615       -3.88291
H         -0.88713       -4.82652       -3.46019
H         -2.24300       -5.54711       -2.58962
H         -2.42507       -3.96997       -3.35468
H         -6.98528        0.49037       -1.31853
H         -6.32530       -1.04543       -1.88464
H         -7.61410       -1.03214       -0.68404
H          3.33969       -4.33651        1.65220
H          4.70825       -4.09767        2.73605
H          3.07328       -3.72566        3.28656
H          0.86089        5.41434        0.93120
H          1.75426        6.43660       -0.19165
H          0.19749        5.75341       -0.66854
