87
-129.18535810
P         -1.71297       -0.39162       -0.10072
P          1.58048        0.35442       -0.19526
C         -1.46251        0.92852       -1.31411
C          1.32540       -0.66599       -1.65106
C         -0.50719        0.88232       -2.32820
C         -0.30736        2.02572       -3.12577
C         -1.08248        3.15136       -2.90807
C         -2.03270        3.17590       -1.91140
C         -2.21146        2.06401       -1.11229
C          2.12827       -1.76116       -1.85578
C          1.94704       -2.55362       -2.97196
C          0.95742       -2.23967       -3.87960
C          0.13474       -1.14144       -3.69022
C          0.32377       -0.33037       -2.55330
Cl         1.31245        1.18440        2.90111
Cl        -1.39347       -0.66927        3.05811
H         -2.62418        4.06165       -1.74698
H         -2.93839        2.08511       -0.31708
H          2.90359       -1.99436       -1.14513
H          2.57465       -3.41517       -3.13075
H         -0.92698        4.02003       -3.52523
H          0.81016       -2.85723       -4.74934
C         -0.80985       -4.62800       -1.47314
C         -0.30328       -4.17583       -0.26243
C         -0.61320       -2.88342        0.14198
C         -1.39065       -2.06960       -0.64978
C         -1.91280       -2.53509       -1.83319
C         -1.62006       -3.82096       -2.24793
H         -0.56569       -5.62311       -1.80386
C          0.58855       -5.03388        0.56372
H         -0.26930       -2.52243        1.09611
H         -2.52737       -1.88445       -2.43470
H         -2.01245       -4.18727       -3.18237
C         -5.87373       -0.05826        1.71865
C         -5.61326       -1.01680        0.75947
C         -4.34653       -1.12232        0.21624
C         -3.35154       -0.26887        0.63312
C         -3.61007        0.68793        1.58741
C         -4.87431        0.80150        2.15277
H         -6.86008        0.02746        2.14179
H         -6.39584       -1.68267        0.43444
H         -4.12849       -1.86847       -0.53024
H         -2.81922        1.34319        1.91367
C         -5.14870        1.84437        3.17842
C          4.95150       -1.38373        2.33035
C          5.07851       -0.11501        1.79988
C          4.06137        0.41544        1.02911
C          2.92930       -0.32721        0.78996
C          2.79923       -1.58958        1.32120
C          3.80717       -2.13644        2.10491
H          5.74343       -1.79904        2.93001
H          5.96783        0.46340        1.98958
H          4.14202        1.40879        0.61927
H          1.90786       -2.16035        1.12509
C          3.66255       -3.50881        2.66216
C          2.41096        4.64300       -1.43153
C          3.15008        3.61265       -1.97915
C          2.90834        2.30808       -1.59007
C          1.93440        2.04957       -0.65451
C          1.20258        3.07331       -0.09977
C          1.43223        4.38989       -0.48015
H          2.58780        5.65827       -1.74333
H          3.90774        3.82307       -2.71606
H          3.46210        1.48838       -2.02059
H          0.44021        2.85102        0.62773
C          0.60765        5.49256        0.08375
Pd        -0.06039        0.15791        1.45551
C          0.72544        2.05593       -4.19889
C         -0.92911       -0.84503       -4.68926
H          0.26775        1.94694       -5.18279
H          1.27124        3.00040       -4.18557
H          1.45538        1.25540       -4.07469
H         -1.64739       -0.11964       -4.30554
H         -0.49900       -0.44083       -5.60644
H         -1.48173       -1.74919       -4.94869
H          1.63116       -4.90024        0.27162
H          0.50090       -4.78669        1.62268
H          0.33816       -6.08926        0.44781
H         -4.29037        1.97714        3.83871
H         -5.36358        2.80453        2.70727
H         -6.00429        1.57379        3.79869
H          3.84961       -4.26079        1.89436
H          4.36368       -3.68093        3.47982
H          2.65552       -3.66661        3.05104
H         -0.28652        5.65388       -0.52007
H          0.28916        5.26287        1.10162
H          1.16793        6.42805        0.11468
