111
-148.55336606
P         -1.63542        2.73982       -0.20908
P         -0.46238       -0.10295        0.51199
C         -1.72549        2.13303        1.50022
C         -1.27138        0.86592        1.79898
C         -0.45103        4.15631       -0.31445
C          0.73773        3.79364       -1.17883
C         -2.21214        2.94184        2.50736
H         -2.52600        3.94680        2.27779
C         -2.26936        2.46703        3.80637
H         -2.65377        3.09708        4.59181
C         -1.82838        1.19060        4.09884
H         -1.86813        0.82326        5.11109
C         -1.31722        0.39064        3.09272
H         -0.93712       -0.59565        3.30825
Pd        -1.20608        0.84546       -1.45870
Cl        -2.29499        1.69367       -3.22185
Cl        -0.61415       -1.06760       -2.48943
C         -1.31297        5.30660       -0.87366
C         -3.18783        3.57557       -0.77507
H          1.28701        2.94517       -0.76579
H          0.41310        3.51359       -2.18312
H          1.43234        4.63150       -1.27455
H         -1.12242        5.39545       -1.95195
H         -0.99683        6.26746       -0.44041
H         -3.29502        3.31691       -1.83647
C         -2.83219        5.06691       -0.63995
C         -4.41136        3.12942       -0.00346
H         -0.13972        4.36949        0.71664
H         -3.11155        5.41067        0.36534
H         -3.43720        5.66877       -1.33535
H         -4.55099        2.04841       -0.07584
H         -4.32372        3.37728        1.05451
H         -5.31611        3.61343       -0.37815
C         -0.95685       -4.61707        0.83806
C          0.33549       -4.06294        0.65480
C          0.44952       -2.68643        0.56174
C         -0.64259       -1.87182        0.70782
C         -1.87719       -2.39692        0.98688
C         -2.06009       -3.76563        1.10425
O         -1.15409       -6.01787        0.71218
C          1.59825       -4.92530        0.50373
H          1.40058       -2.23003        0.35283
H         -2.70453       -1.71734        1.10071
C         -3.44861       -4.30467        1.48247
C          3.80038        1.42737        0.02752
C          3.27403        0.49926       -0.90694
C          1.97636        0.05466       -0.72647
C          1.24445        0.42632        0.36960
C          1.78022        1.24951        1.32430
C          3.06900        1.74098        1.20191
O          5.03925        2.07198       -0.23212
C          4.05946        0.01248       -2.13407
H          1.49360       -0.55582       -1.46949
H          1.16368        1.52664        2.16109
C          3.62849        2.64458        2.31138
C          1.82426       -5.23098       -0.98489
C          2.83707       -4.17801        1.04860
C          1.47970       -6.23507        1.30387
C         -4.19129       -3.30128        2.39410
C         -4.27702       -4.51571        0.20622
C         -3.33822       -5.62445        2.26768
C         -1.46289       -6.43908       -0.61065
H          2.72373       -5.82886       -1.12934
H          0.98457       -5.77873       -1.40615
H          1.93588       -4.30876       -1.55467
H          3.70986       -4.83053        1.05620
H          3.09080       -3.31398        0.43686
H          2.66546       -3.83661        2.06906
H          2.40128       -6.81381        1.24690
H          1.27446       -6.02620        2.35325
H          0.67540       -6.86071        0.92546
H         -4.45511       -2.38946        1.86056
H         -5.11963       -3.73238        2.76821
H         -3.57776       -3.03095        3.25318
H         -4.38404       -3.58036       -0.34257
H         -3.80281       -5.23518       -0.45695
H         -5.27455       -4.88396        0.44444
H         -2.89696       -6.41154        1.66141
H         -2.71432       -5.49413        3.15128
H         -4.31910       -5.97035        2.59281
H         -1.50379       -5.58065       -1.28244
H         -0.70265       -7.13748       -0.95995
H         -2.42468       -6.95170       -0.61609
C          4.92326        3.28090       -0.97290
C          3.61553       -1.41344       -2.53477
C          3.78984        0.95769       -3.31483
C          5.56818       -0.05640       -1.83722
C          3.00960        2.27735        3.67962
C          5.15233        2.47609        2.44940
C          3.28072        4.10766        1.99626
H          4.25173       -1.80829       -3.32647
H          3.67996       -2.09205       -1.68510
H          2.59338       -1.42899       -2.90972
H          4.10663        1.97292       -3.08875
H          4.32231        0.62967       -4.20710
H          2.72569        0.98735       -3.54836
H          5.97606        0.92717       -1.61903
H          5.76039       -0.69559       -0.97608
H          6.11691       -0.45937       -2.68809
H          1.94984        2.52461        3.72297
H          3.12305        1.21289        3.88324
H          3.49810        2.82595        4.48462
H          5.67061        2.79367        1.54825
H          5.53879        3.06933        3.27777
H          5.40776        1.43268        2.63111
H          2.20098        4.24226        1.93692
H          3.70471        4.41861        1.04464
H          3.66172        4.77481        2.76900
H          3.87877        3.48362       -1.21122
H          5.32994        4.10757       -0.39067
H          5.49729        3.20139       -1.89591
