58
-89.86742013
P          1.58042        0.23869        0.81732
C          1.91601        1.91532        0.26247
C          3.13506        2.23710       -0.28912
C          3.36943        3.52376       -0.73946
C          2.37738        4.47927       -0.63936
C          1.15203        4.14977       -0.09520
C          0.92271        2.86235        0.35415
H         -0.03803        2.58560        0.75341
H          3.89481        1.47782       -0.37702
C          3.07787       -0.75750        0.78335
C          4.14648       -0.36865        1.55995
C          5.30680       -1.12245        1.56290
C          5.38756       -2.26360        0.78984
C          4.31279       -2.65199        0.01500
C          3.15477       -1.89602        0.01357
H          2.31443       -2.18557       -0.59570
H          4.07038        0.52582        2.15824
C          0.93292        0.22947        2.53549
C          0.27980       -1.11491        2.83503
C         -1.20868       -1.16069        2.52257
P         -1.66770       -0.58617        0.82767
C         -3.03037       -1.60557        0.25910
C         -2.80352       -2.93570       -0.00959
C         -3.84307       -3.73279       -0.45535
C         -5.10148       -3.19025       -0.62679
C         -5.32360       -1.85463       -0.35468
C         -4.28230       -1.06008        0.08987
H         -4.43890       -0.01483        0.30195
H         -1.81257       -3.34195        0.12066
C         -2.10823        1.16085        0.76004
C         -2.32860        1.70047       -0.48747
C         -2.63157        3.04270       -0.62050
C         -2.71329        3.83998        0.50317
C         -2.49906        3.29623        1.75416
C         -2.19785        1.95270        1.88305
H         -2.03655        1.52660        2.85862
H         -2.24853        1.06277       -1.35415
Pd         0.04258       -0.48830       -0.75125
Cl         1.65373       -0.25658       -2.29908
Cl        -1.48677       -1.09265       -2.28534
H         -1.59586       -2.17761        2.62502
H         -1.77368       -0.55060        3.22871
H          0.80273       -1.89326        2.25986
H          0.43658       -1.38633        3.89114
H          1.78668        0.42737        3.18802
H          0.23287        1.05476        2.66676
H          4.32300        3.77746       -1.17257
H          0.37172        4.88984       -0.02769
H          6.14535       -0.81841        2.16762
H          4.37631       -3.54061       -0.59133
H         -3.66863       -4.77379       -0.67239
H         -6.30479       -1.43051       -0.49124
H         -2.79710        3.46404       -1.59833
H         -2.56604        3.91898        2.63118
H          2.55744        5.48146       -0.99277
H          6.29112       -2.85125        0.79018
H         -5.91120       -3.80981       -0.97639
H         -2.94604        4.88769        0.40395
