105
-153.06475782
Cl        -0.16685        2.39636        2.92116
Pd        -0.47392        1.61632        0.83261
P         -1.08968        0.57250       -1.19452
N         -0.97073       -1.16837       -1.39186
C          0.15116       -2.00728       -1.31407
C          0.29698       -2.83440       -0.17322
C          1.34332       -3.76713       -0.10132
C          1.46686       -4.62784        1.13194
C          2.43389       -5.81279        0.97619
C          3.71684       -5.38436        0.25534
C          3.39896       -4.83647       -1.14489
C          2.24216       -3.87029       -1.16578
C          2.07718       -3.05697       -2.28361
C          1.05762       -2.14175       -2.36109
H          0.94923       -1.52016       -3.23050
H          2.77512       -3.14852       -3.09855
H          4.28213       -4.34160       -1.56902
H          4.22015       -4.60666        0.84368
H          2.66725       -6.25830        1.95349
H          1.79078       -4.00000        1.96971
C         -0.63861       -2.59809        0.95656
C         -0.25191       -1.65754        1.94644
C         -1.21484       -1.18382        2.83800
C         -2.50208       -1.65432        2.78894
C         -2.89134       -2.60282        1.84780
C         -4.32540       -3.06401        1.83562
C         -4.75903       -3.62915        0.47500
C         -3.74538       -4.66720       -0.01878
C         -2.34418       -4.05048       -0.17012
C         -1.95974       -3.07945        0.92193
H         -1.58549       -4.84200       -0.21510
H         -4.07897       -5.11469       -0.96554
H         -4.82451       -2.81074       -0.25330
H         -4.97631       -2.23096        2.12969
H         -3.23338       -1.28300        3.48683
H         -0.92801       -0.43343        3.55340
N          1.07335       -1.18422        1.99843
P          1.46626        0.30313        1.14350
C          2.50035        0.01059       -0.28696
C          3.58866       -0.82435       -0.19727
C          4.40556       -1.00535       -1.29937
C          4.13964       -0.34620       -2.49312
C          3.04509        0.50429       -2.55574
C          2.23523        0.68642       -1.45099
H          1.39899        1.36111       -1.48853
H          2.82586        1.01836       -3.47585
C          4.99186       -0.55917       -3.69519
H          5.25236       -1.66729       -1.23893
H          3.80168       -1.32638        0.73288
C          2.39254        1.39856        2.21698
C          2.60221        1.02655        3.52199
C          3.30568        1.86309        4.36995
C          3.79654        3.07884        3.91204
C          3.58301        3.42963        2.58517
C          2.87922        2.59160        1.73920
H          2.70587        2.86219        0.70957
H          3.96926        4.36541        2.21889
C          4.57076        3.97271        4.81703
H          3.47370        1.57762        5.39427
H          2.20452        0.08658        3.86958
H          1.78774       -1.80627        1.64202
H         -1.64528       -1.35583       -0.65817
C         -0.56503        1.50773       -2.62552
C         -0.35037        2.86058       -2.50985
C          0.08990        3.58002       -3.60517
C          0.30002        2.95029       -4.82515
C          0.05912        1.58614       -4.92476
C         -0.38021        0.86842       -3.82707
H         -0.59143       -0.18553       -3.90084
H          0.21994        1.08921       -5.86618
C          0.80675        3.71719       -5.99674
H          0.27146        4.63766       -3.51882
H         -0.55192        3.34727       -1.56876
C         -2.87733        0.77093       -1.05438
C         -3.59482        1.38747       -2.05144
C         -4.96621        1.51787       -1.93226
C         -5.62865        1.02452       -0.81628
C         -4.88549        0.41221        0.18308
C         -3.51466        0.28246        0.06023
H         -2.93757       -0.19456        0.83493
H         -5.38664        0.04342        1.06147
C         -7.10141        1.18830       -0.67107
H         -5.53115        2.00856       -2.70632
H         -3.08014        1.76809       -2.91840
Cl        -2.08946        3.13519        0.46268
H          3.17283       -5.66664       -1.82460
H          1.94424       -6.60812        0.40041
H          4.42986       -6.21895        0.19782
H          0.46830       -4.98791        1.41032
H         -3.70185       -5.49707        0.69766
H         -2.27718       -3.53331       -1.13450
H         -4.45481       -3.82685        2.61251
H         -5.76900       -4.05950        0.52969
H          4.43943       -1.09001       -4.47186
H          5.32487        0.39332       -4.10986
H          5.87930       -1.14637       -3.45538
H          4.44700        5.01953        4.53625
H          4.24025        3.86713        5.85125
H          5.63501        3.73665        4.77747
H          1.89723        3.70614       -6.02411
H          0.44208        3.29241       -6.93303
H          0.48151        4.75772       -5.95711
H         -7.53693        0.35477       -0.11816
H         -7.33679        2.10828       -0.13435
H         -7.59147        1.23156       -1.64471
