111
-148.55444594
P         -2.49850        2.11924        1.01181
P          0.09661        0.36447        0.53274
C         -1.42693        1.69417        2.41147
C         -0.27762        0.96694        2.18951
C         -3.19910        3.82454        1.17755
C         -2.53782        4.78960        0.21793
C         -1.75830        2.08188        3.69403
H         -2.66838        2.63278        3.86611
C         -0.92886        1.74681        4.75054
H         -1.18669        2.04916        5.75241
C          0.22663        1.02377        4.52354
H          0.87079        0.76114        5.34649
C          0.55147        0.62867        3.23817
H          1.44095        0.04967        3.04391
Pd        -1.30396        1.54928       -0.87895
Cl        -2.95099        2.46639       -2.09102
Cl         0.05125        0.93827       -2.56594
C         -4.70370        3.60261        0.93435
C         -4.05798        1.12596        0.95167
H         -2.68448        4.47101       -0.81499
H         -2.95279        5.79565        0.31416
H         -1.46081        4.84789        0.39280
H         -4.91764        3.77668       -0.12920
H         -5.29600        4.35171        1.48155
H         -4.17487        0.80708       -0.09282
C         -5.13918        2.15932        1.31854
C         -3.98439       -0.07158        1.87379
H         -3.02243        4.13353        2.21563
H         -5.32507        2.10807        2.40021
H         -6.09615        1.89767        0.84192
H         -3.80334        0.24229        2.90348
H         -4.91388       -0.64546        1.85931
H         -3.16969       -0.73978        1.58653
C         -1.19782       -3.97014        0.01098
C         -1.20489       -3.39509        1.30818
C         -0.79840       -2.07822        1.44475
C         -0.47246       -1.32389        0.34848
C         -0.57312       -1.84267       -0.91459
C         -0.96750       -3.15181       -1.12403
O         -1.38132       -5.36961       -0.14721
C         -1.60685       -4.18874        2.56124
H         -0.71770       -1.62527        2.41684
H         -0.32566       -1.19967       -1.74107
C         -1.10058       -3.66510       -2.56574
C          4.45467        0.72754       -0.72662
C          3.87021       -0.55412       -0.56262
C          2.54212       -0.62252       -0.17852
C          1.82612        0.51091        0.10469
C          2.41360        1.74683        0.04574
C          3.74002        1.88752       -0.33027
O          5.73907        0.85023       -1.32052
C          4.63354       -1.85951       -0.83624
H          2.03859       -1.57120       -0.11430
H          1.81136        2.60718        0.28269
C          4.36656        3.29065       -0.34474
C         -2.68344       -5.23834        2.23032
C         -0.36333       -4.87232        3.14945
C         -2.20802       -3.25241        3.63422
C          0.25766       -4.20678       -3.03700
C         -2.17688       -4.76052       -2.66997
C         -1.53070       -2.52023       -3.51208
C         -0.17219       -6.11795       -0.11890
H         -2.30745       -5.98804        1.53858
H         -3.01491       -5.75687        3.12962
H         -3.55143       -4.76590        1.77158
H         -0.61521       -5.43460        4.04826
H          0.08212       -5.56154        2.43614
H          0.39332       -4.13388        3.41375
H         -1.46462       -2.56448        4.03409
H         -3.03079       -2.66889        3.22278
H         -2.59563       -3.82743        4.47488
H          0.59535       -5.02702       -2.40793
H          0.19887       -4.57026       -4.06256
H          1.01689       -3.42603       -2.99859
H         -3.13360       -4.39434       -2.29905
H         -2.31288       -5.07921       -3.70312
H         -1.90815       -5.63839       -2.08799
H         -2.42412       -2.02190       -3.13681
H         -0.74612       -1.77398       -3.62700
H         -1.75419       -2.90383       -4.50719
H          0.68087       -5.45771        0.04303
H         -0.21823       -6.85570        0.68203
H         -0.04692       -6.64815       -1.06279
C          5.71240        0.98455       -2.73613
C          4.46626       -2.24536       -2.31384
C          6.12588       -1.71132       -0.48933
C          4.07930       -3.01025        0.03553
C          3.71824        4.18896        0.73325
C          5.87244        3.23138       -0.03001
C          4.13625        3.93394       -1.72078
H          4.86529       -1.47641       -2.97056
H          4.98350       -3.17865       -2.53494
H          3.41285       -2.37607       -2.56010
H          6.65555       -2.65383       -0.62574
H          6.60828       -0.96886       -1.12008
H          6.24949       -1.39953        0.54726
H          3.07102       -3.29399       -0.26319
H          4.70146       -3.90010       -0.05776
H          4.05904       -2.72516        1.08709
H          3.74886        3.70620        1.70971
H          4.24576        5.13923        0.81305
H          2.68067        4.41924        0.49609
H          6.04536        2.73755        0.92559
H          6.41671        2.68050       -0.79280
H          6.30151        4.23171        0.02233
H          4.59534        3.34718       -2.51257
H          4.55753        4.93819       -1.75830
H          3.07087        4.00564       -1.93854
H          6.27969        0.17288       -3.19129
H          4.68460        0.96043       -3.10073
H          6.17857        1.92679       -3.02351
