111
-148.55030859
P         -2.62711        2.02875        0.72692
P          0.08760        0.43252        0.44321
C         -1.55632        1.80809        2.17734
C         -0.34249        1.17234        2.02893
C         -3.59409        3.60564        0.83426
C         -2.95320        4.74256        0.06936
C         -1.93777        2.27115        3.42103
H         -2.89695        2.74515        3.54487
C         -1.09517        2.10804        4.50716
H         -1.39341        2.47080        5.47729
C          0.12541        1.48009        4.35114
H          0.78025        1.35148        5.19721
C          0.50038        1.00447        3.10777
H          1.43962        0.49128        2.97139
Pd        -1.30663        1.46731       -1.09229
Cl        -2.47856        2.83224       -2.41887
Cl        -0.04608        0.53156       -2.70523
C         -4.98124        3.17288        0.32812
C         -4.01723        0.80948        0.60006
H         -2.89574        4.51454       -0.99443
H         -3.52622        5.66666        0.17384
H         -1.93607        4.93196        0.41982
H         -5.01053        3.28972       -0.76419
H         -5.76080        3.84407        0.72010
H         -3.94151        0.36455       -0.40124
C         -5.27751        1.69199        0.70206
C         -3.90848       -0.25391        1.67063
H         -3.65267        3.85766        1.90029
H         -5.65757        1.64623        1.73175
H         -6.08311        1.28326        0.07370
H         -2.97988       -0.81940        1.57229
H         -3.91357        0.19628        2.66517
H         -4.74066       -0.95991        1.61948
C         -1.12247       -3.96566        0.44429
C         -0.99689       -3.27184        1.67751
C         -0.61116       -1.94197        1.64496
C         -0.44150       -1.28189        0.45600
C         -0.68946       -1.91512       -0.73226
C         -1.06912       -3.24395       -0.77699
O         -1.21426       -5.38117        0.42873
C         -1.27336       -3.90720        3.05060
H         -0.43204       -1.40538        2.56031
H         -0.56176       -1.35521       -1.64164
C         -1.41291       -3.84209       -2.15088
C          4.48614        0.72666       -0.69788
C          3.86824        1.81040       -0.02126
C          2.52473        1.70522        0.30236
C          1.82824        0.55278        0.04970
C          2.44776       -0.53259       -0.51153
C          3.78476       -0.49410       -0.86599
O          5.79124        0.87543       -1.23802
C          4.62432        3.10008        0.33552
H          1.99782        2.52897        0.75214
H          1.86172       -1.41751       -0.68637
C          4.42877       -1.75582       -1.46150
C         -2.15521       -2.95611        3.89021
C         -2.03449       -5.23936        2.93584
C          0.05819       -4.13716        3.78408
C         -0.11990       -4.03266       -2.96158
C         -2.15327       -5.18551       -2.03600
C         -2.34737       -2.87370       -2.91053
C          0.05510       -6.01148        0.38108
H         -3.08329       -2.72997        3.36629
H         -2.41313       -3.40987        4.84677
H         -1.65038       -2.01545        4.10377
H         -1.43165       -5.99645        2.43994
H         -2.30345       -5.62424        3.91925
H         -2.94958       -5.11043        2.35884
H          0.70117       -4.81693        3.22825
H          0.59846       -3.19982        3.91344
H         -0.11020       -4.56648        4.77138
H          0.40130       -3.08466       -3.09179
H          0.56048       -4.71964       -2.46192
H         -0.33646       -4.43454       -3.95095
H         -2.47046       -5.54429       -3.01488
H         -1.51730       -5.94984       -1.59585
H         -3.03743       -5.08425       -1.40760
H         -2.67200       -3.30833       -3.85550
H         -3.23542       -2.65302       -2.31893
H         -1.85404       -1.93099       -3.14105
H          0.59527       -5.69818       -0.51092
H          0.64049       -5.74010        1.25802
H         -0.08093       -7.09293        0.35922
C          5.81227        1.36302       -2.57379
C          6.10607        2.81023        0.63693
C          4.50541        4.09728       -0.82695
C          4.02703        3.74908        1.60503
C          3.76120       -3.03023       -0.89311
C          4.24195       -1.74637       -2.98637
C          5.92438       -1.83678       -1.10730
H          6.62595        3.71451        0.95238
H          6.19838        2.07096        1.43186
H          6.62140        2.42397       -0.23885
H          5.02076        5.02931       -0.59639
H          4.93599        3.69237       -1.73952
H          3.46022        4.33008       -1.02924
H          3.02431        4.13489        1.42756
H          3.97880        3.02970        2.42217
H          4.63846        4.58894        1.93429
H          4.29968       -3.92311       -1.20993
H          3.75515       -3.01214        0.19642
H          2.73448       -3.13844       -1.23972
H          4.71541       -0.87714       -3.43633
H          4.67462       -2.63826       -3.43883
H          3.18334       -1.71614       -3.24370
H          6.36583       -2.76083       -1.47979
H          6.06489       -1.80479       -0.02739
H          6.48051       -1.00905       -1.53997
H          6.29741        0.63389       -3.22244
H          4.79673        1.54583       -2.92742
H          6.38484        2.28944       -2.61570
