58
-89.86615334
P          1.56566        0.21812        0.81212
C          1.62542        1.94251        0.30944
C          1.60079        2.96424        1.23143
C          1.63549        4.27774        0.79918
C          1.69965        4.55838       -0.55165
C          1.73749        3.53001       -1.47221
C          1.70401        2.21862       -1.03638
H          1.74411        1.39887       -1.73625
H          1.55487        2.73539        2.28346
C          3.17819       -0.55107        0.64111
C          4.29816        0.24763        0.59331
C          5.54906       -0.32801        0.46010
C          5.66790       -1.70118        0.37578
C          4.54130       -2.49837        0.42426
C          3.29189       -1.91987        0.55853
H          2.40412       -2.53109        0.58155
H          4.18789        1.31858        0.65522
C          0.99505        0.00563        2.55063
C          0.24720       -1.30922        2.74066
C         -1.24701       -1.22298        2.46613
P         -1.70213       -0.60878        0.78466
C         -3.25860       -1.36413        0.30382
C         -4.36931       -0.58135        0.08522
C         -5.56296       -1.17071       -0.29034
C         -5.63411       -2.54114       -0.44528
C         -4.51656       -3.32233       -0.22610
C         -3.32421       -2.72987        0.15054
H         -2.43949       -3.32522        0.31363
H         -4.29734        0.48739        0.20568
C         -1.81432        1.18943        0.68378
C         -1.89499        1.74549       -0.57311
C         -1.93766        3.11909       -0.72310
C         -1.90467        3.93031        0.39292
C         -1.83609        3.37033        1.65310
C         -1.79261        1.99598        1.79852
H         -1.75288        1.55673        2.78079
H         -1.91399        1.09436       -1.43325
Pd         0.09585       -0.73484       -0.70376
Cl         1.81651       -0.98250       -2.12039
Cl        -1.50669       -1.46909       -2.10019
H         -1.71630       -2.20423        2.57234
H         -1.73936       -0.57193        3.18990
H          0.69687       -2.07153        2.09004
H          0.40200       -1.68162        3.76547
H          1.89658        0.05488        3.16690
H          0.37196        0.85369        2.83383
H          1.60889        5.08116        1.51688
H          1.79270        3.74677       -2.52627
H          6.42748        0.29486        0.41912
H          4.63358       -3.56961        0.35217
H         -6.43404       -0.56059       -0.46427
H         -4.57047       -4.39115       -0.35240
H         -1.98890        3.55305       -1.70805
H         -1.81292        4.00450        2.52412
H          1.72286        5.58214       -0.88782
H          6.64132       -2.15137        0.26850
H         -6.56274       -3.00164       -0.74080
H         -1.93106        5.00189        0.28030
