111
-148.55108910
P         -2.32956        2.31800        0.69649
P         -0.05095        0.12791        0.50643
C         -1.46446        1.79405        2.19697
C         -0.44663        0.87187        2.10119
C         -2.51324        4.16001        0.67972
C         -1.50281        4.82211       -0.23161
C         -1.79497        2.33202        3.42423
H         -2.59795        3.04767        3.49364
C         -1.09588        1.94667        4.55515
H         -1.35328        2.36511        5.51446
C         -0.06569        1.03137        4.45478
H          0.48186        0.73479        5.33421
C          0.26097        0.49303        3.22304
H          1.06252       -0.22287        3.12679
Pd        -1.31601        1.24597       -1.08397
Cl        -2.42402        2.65058       -2.43663
Cl        -0.17906        0.15679       -2.68824
C         -3.98586        4.34803        0.27376
C         -4.10852        1.81269        0.62656
H         -1.61312        5.90893       -0.22717
H         -0.48049        4.58315        0.07087
H         -1.62578        4.48460       -1.26099
H         -4.04185        4.43072       -0.82047
H         -4.37388        5.30135        0.66387
H         -4.25970        1.38122       -0.37203
C         -4.86051        3.15200        0.74936
C         -4.43170        0.79966        1.70413
H         -2.36370        4.49003        1.71590
H         -5.14560        3.30266        1.79955
H         -5.80745        3.11210        0.19005
H         -5.48084        0.49714        1.66646
H         -3.81553       -0.09728        1.60262
H         -4.24256        1.21461        2.69573
C         -1.01681       -4.33433        0.48868
C         -1.19468       -3.57994        1.67886
C         -0.87423       -2.23291        1.65453
C         -0.47802       -1.61610        0.49582
C         -0.44878       -2.31358       -0.68330
C         -0.74216       -3.66459       -0.73250
O         -1.03707       -5.75204        0.53414
C         -1.73898       -4.16550        2.99287
H         -0.93131       -1.64795        2.55538
H         -0.20014       -1.77862       -1.58232
C         -0.76005       -4.34705       -2.11064
C          4.20861        1.07405       -0.78774
C          3.44642        2.03700       -0.07350
C          2.15115        1.70694        0.29156
C          1.64800        0.45406        0.05642
C          2.42312       -0.51717       -0.51979
C          3.72125       -0.25331       -0.92178
O          5.41449        1.45505       -1.43039
C          3.97463        3.42271        0.33454
H          1.51108        2.43567        0.76096
H          1.99442       -1.49157       -0.67303
C          4.54421       -1.41577       -1.50253
C         -0.59468       -4.28492        4.01283
C         -2.82664       -3.22625        3.56084
C         -2.39466       -5.54274        2.79191
C         -1.45217       -5.72050       -2.07426
C         -1.54810       -3.47037       -3.10970
C          0.68276       -4.51060       -2.61627
C          0.23852       -6.31070        0.80089
H         -0.95893       -4.67585        4.96254
H          0.18530       -4.95291        3.65242
H         -0.13899       -3.31353        4.20259
H         -2.41925       -2.25665        3.84248
H         -3.61340       -3.06040        2.82539
H         -3.28436       -3.65612        4.45144
H         -2.85585       -5.89669        3.71364
H         -3.16492       -5.49309        2.02308
H         -1.66338       -6.28617        2.48356
H         -1.53751       -6.14421       -3.07462
H         -0.89402       -6.42708       -1.46460
H         -2.45368       -5.63500       -1.65414
H         -1.64742       -3.97191       -4.07193
H         -2.54945       -3.26367       -2.73328
H         -1.05369       -2.51785       -3.29220
H          1.26930       -5.13064       -1.94097
H          0.70027       -4.97632       -3.60122
H          1.17773       -3.54351       -2.69409
H          0.94511       -6.01606        0.02664
H          0.60661       -5.95944        1.76345
H          0.15797       -7.39773        0.82069
C          5.20711        1.94361       -2.74535
C          3.61706        3.69186        1.81356
C          5.50562        3.52328        0.21855
C          3.31755        4.50006       -0.54415
C          6.05333       -1.11689       -1.50087
C          4.33373       -2.68253       -0.64232
C          4.07599       -1.70492       -2.93837
H          4.00218        2.89769        2.45255
H          4.04743        4.63406        2.15195
H          2.54087        3.75447        1.96602
H          5.98666        2.72467        0.78219
H          5.83018        3.44268       -0.81599
H          5.86687        4.47669        0.60335
H          3.65779        5.49543       -0.25973
H          3.55649        4.35160       -1.59526
H          2.23286        4.47516       -0.44472
H          6.62586       -1.98371       -1.83007
H          6.29226       -0.29251       -2.16860
H          6.39036       -0.84576       -0.50100
H          3.30884       -3.04582       -0.69732
H          4.98041       -3.49220       -0.97960
H          4.56583       -2.48075        0.40299
H          3.00818       -1.91871       -2.96260
H          4.60157       -2.56411       -3.35428
H          4.25687       -0.85435       -3.59196
H          4.67211        1.20451       -3.33879
H          4.61932        2.85926       -2.71663
H          6.17207        2.14992       -3.20885
