111
-148.55368416
P         -2.36575        2.33098        0.58169
P         -0.00961        0.17848        0.44998
C         -1.40215        1.94695        2.06442
C         -0.37426        1.03222        1.99570
C         -2.45101        4.16037        0.31923
C         -1.51967        4.60790       -0.78606
C         -1.68429        2.57923        3.25794
H         -2.48564        3.29905        3.30202
C         -0.93740        2.28529        4.38585
H         -1.15799        2.77664        5.31939
C          0.09075        1.36476        4.31568
H          0.67219        1.13556        5.19349
C          0.37382        0.73665        3.11574
H          1.17148        0.01366        3.04322
Pd        -1.53489        0.98643       -1.09531
Cl        -2.84861        2.11507       -2.52020
Cl        -0.58461       -0.37310       -2.60671
C         -3.94690        4.39785        0.04430
C         -4.16994        1.93837        0.71769
H         -1.58466        5.68590       -0.95082
H         -0.48111        4.36313       -0.55157
H         -1.76878        4.11540       -1.72702
H         -4.11655        4.35473       -1.04043
H         -4.23747        5.41459        0.34970
H         -4.43135        1.41541       -0.21214
C         -4.83063        3.32924        0.74916
C         -4.46230        1.06788        1.92063
H         -2.16334        4.61893        1.27445
H         -4.99306        3.62074        1.79584
H         -5.83267        3.28755        0.29595
H         -3.90279        0.13110        1.87374
H         -4.17779        1.57229        2.84538
H         -5.52535        0.82578        1.99014
C         -0.82398       -4.28545        0.87492
C         -1.45882       -3.36083        1.74299
C         -1.16078       -2.01573        1.59850
C         -0.32501       -1.57746        0.60393
C          0.20316       -2.45613       -0.30478
C         -0.05449       -3.81404       -0.21919
O         -0.93597       -5.68253        1.10729
C         -2.44172       -3.79235        2.84317
H         -1.57586       -1.28562        2.27141
H          0.81206       -2.05874       -1.09796
C          0.49188       -4.75711       -1.30284
C          4.17422        1.23903       -1.00313
C          3.06146        2.02630       -1.39438
C          1.81260        1.68443       -0.90358
C          1.63649        0.56332       -0.13510
C          2.69110       -0.26242        0.15540
C          3.96832        0.02573       -0.29772
O          5.49328        1.68711       -1.27924
C          3.18779        3.24176       -2.32596
H          0.95392        2.29699       -1.11751
H          2.50253       -1.13906        0.75053
C          5.10821       -0.96143       -0.00167
C         -3.49630       -2.69060        3.09518
C         -3.21346       -5.06075        2.43580
C         -1.66742       -4.03566        4.14753
C          0.71316       -3.99808       -2.63110
C          1.83684       -5.34262       -0.84823
C         -0.50916       -5.89078       -1.59034
C          0.05678       -6.21049        1.97783
H         -3.98621       -2.40496        2.16475
H         -4.26505       -3.04127        3.78342
H         -3.05318       -1.80063        3.53955
H         -3.72917       -4.90758        1.48840
H         -2.54768       -5.91168        2.31803
H         -3.95646       -5.32590        3.18754
H         -2.33874       -4.34327        4.94887
H         -0.91544       -4.81089        4.02189
H         -1.15536       -3.12782        4.46592
H          1.52822       -3.28000       -2.55226
H          0.97166       -4.68865       -3.43340
H         -0.18860       -3.46303       -2.92784
H          2.26067       -5.98875       -1.61661
H          2.55287       -4.54835       -0.64220
H          1.72539       -5.93122        0.05841
H         -0.15492       -6.53146       -2.39745
H         -0.65968       -6.51684       -0.71389
H         -1.47702       -5.48312       -1.88031
H          0.79254       -5.44446        2.22594
H         -0.41035       -6.57530        2.89212
H          0.55334       -7.05127        1.49353
C          6.04525        2.51185       -0.26076
C          1.90482        3.40976       -3.17285
C          3.39348        4.50939       -1.48354
C          4.35528        3.06609       -3.31395
C          6.18396       -0.91852       -1.10248
C          5.73262       -0.62216        1.35997
C          4.57193       -2.40995        0.04206
H          1.65362        2.48051       -3.68362
H          1.05270        3.70457       -2.56294
H          2.03821        4.18266       -3.92931
H          2.55622        4.65956       -0.80229
H          4.29913        4.44117       -0.88511
H          3.47455        5.39126       -2.11849
H          4.40111        3.89613       -4.01848
H          5.31007        3.02142       -2.79601
H          4.24039        2.14396       -3.88268
H          6.95392       -1.66960       -0.92770
H          5.74063       -1.10776       -2.07953
H          6.67413        0.05103       -1.14097
H          4.98641       -0.68185        2.15192
H          6.53930       -1.31331        1.60297
H          6.14056        0.38614        1.36483
H          3.91294       -2.57295        0.89345
H          5.39059       -3.12389        0.12989
H          4.02151       -2.64206       -0.86915
H          5.33068        2.64049        0.55320
H          6.95655        2.05558        0.12551
H          6.30044        3.48625       -0.67703
