111
-148.55129649
P         -2.73941        1.84820       -0.22898
P          0.13913        0.60500        0.26165
C         -1.85340        2.18263        1.32334
C         -0.58052        1.68679        1.50704
C         -3.87766        3.25319       -0.63805
C         -3.62297        3.80344       -2.02365
C         -2.44871        2.92390        2.32476
H         -3.45204        3.29321        2.19119
C         -1.76194        3.17407        3.50045
H         -2.22718        3.75366        4.28101
C         -0.48373        2.68006        3.67670
H          0.04929        2.87217        4.59330
C          0.10713        1.92771        2.67772
H          1.09610        1.51559        2.80520
Pd        -1.11073        1.00504       -1.64696
Cl        -2.56853        1.19973       -3.33272
Cl         0.59474        0.10671       -2.80317
C         -5.27712        2.62652       -0.46151
C         -3.95555        0.45945       -0.09584
H         -2.58203        4.11206       -2.14422
H         -3.83308        3.04763       -2.78116
H         -4.25966        4.66528       -2.23702
H         -5.97903        3.09236       -1.16848
H         -5.66861        2.85967        0.53961
H         -3.59094       -0.34835       -0.74553
C         -5.24996        1.08385       -0.65540
C         -4.07262       -0.02318        1.33348
H         -3.69582        4.03429        0.11198
H         -6.12174        0.61656       -0.17441
H         -5.34151        0.85176       -1.72682
H         -4.41007        0.78413        1.98613
H         -4.78751       -0.84461        1.42316
H         -3.11004       -0.37134        1.71301
C         -1.32046       -3.63561        1.05731
C         -0.84437       -3.27816       -0.23181
C         -0.41218       -1.97935       -0.42909
C         -0.37580       -1.07757        0.60057
C         -0.70333       -1.45663        1.87564
C         -1.13883       -2.74288        2.14768
O         -2.05297       -4.83724        1.23526
C         -0.77846       -4.24201       -1.42721
H         -0.10663       -1.64617       -1.40592
H         -0.62912       -0.72742        2.66403
C         -1.38379       -3.12324        3.61731
C          4.67770        0.87266        0.03137
C          3.88898        1.97560       -0.38637
C          2.51083        1.87859       -0.27687
C          1.91970        0.72015        0.15373
C          2.67264       -0.38526        0.45270
C          4.05386       -0.35657        0.36401
O          6.08638        1.00983        0.15041
C          4.50921        3.26879       -0.93814
H          1.87556        2.71079       -0.52748
H          2.16117       -1.28110        0.75924
C          4.84528       -1.64446        0.64035
C         -1.86183       -3.85789       -2.44912
C          0.61023       -4.13265       -2.09517
C         -0.96331       -5.71034       -1.00789
C         -0.17996       -2.66476        4.46975
C         -2.65580       -2.42305        4.12368
C         -1.52140       -4.64298        3.81353
C         -3.44505       -4.66160        1.03082
H         -2.85652       -3.93234       -2.01348
H         -1.72670       -2.83329       -2.79443
H         -1.82595       -4.51232       -3.31954
H          0.77997       -3.14410       -2.51843
H          1.40069       -4.32946       -1.37157
H          0.70922       -4.85388       -2.90591
H         -0.24816       -5.98124       -0.23197
H         -1.96251       -5.88527       -0.61604
H         -0.81863       -6.38176       -1.85394
H          0.74693       -3.08963        4.08521
H         -0.07662       -1.58095        4.47451
H         -0.29265       -2.98484        5.50528
H         -2.56119       -1.34016        4.04936
H         -3.52670       -2.72180        3.54318
H         -2.84688       -2.67083        5.16746
H         -1.59563       -4.89775        4.87049
H         -2.41178       -5.02500        3.31974
H         -0.65957       -5.16370        3.39761
H         -3.84054       -3.94382        1.74780
H         -3.63066       -4.28972        0.02425
H         -3.95146       -5.61815        1.16143
C          6.51883        1.44082        1.43463
C          5.81828        2.97637       -1.69418
C          3.55107        3.94545       -1.94463
C          4.77368        4.24182        0.22050
C          5.15978       -1.73640        2.14099
C          4.02076       -2.88666        0.22989
C          6.14824       -1.68152       -0.17869
H          6.22129        3.88252       -2.14575
H          6.57885        2.57425       -1.02945
H          5.64855        2.24845       -2.48683
H          3.24043        3.24147       -2.71629
H          2.65928        4.33306       -1.45457
H          4.03749        4.78785       -2.43588
H          3.84761        4.47878        0.74378
H          5.46266        3.81368        0.94470
H          5.20434        5.17435       -0.14335
H          4.24113       -1.74646        2.72725
H          5.71550       -2.64573        2.36849
H          5.75386       -0.88761        2.47160
H          3.67138       -2.79591       -0.79829
H          4.62341       -3.79187        0.30012
H          3.15485       -3.02924        0.87477
H          6.67529       -2.62437       -0.03482
H          6.82271       -0.88008        0.11223
H          5.93598       -1.56985       -1.24145
H          5.66236        1.60174        2.09057
H          7.17485        0.68828        1.87174
H          7.08195        2.36893        1.33771
