111
-148.55353064
P         -2.47780        2.37530        0.41574
P         -0.03530        0.35079        0.50335
C         -1.77195        1.88706        2.00890
C         -0.74637        0.96806        2.04340
C         -2.68633        4.20750        0.29275
C         -1.99019        4.73083       -0.94470
C         -2.28081        2.39834        3.18558
H         -3.06958        3.13200        3.14970
C         -1.77542        1.96660        4.39968
H         -2.17340        2.36349        5.31929
C         -0.76999        1.01967        4.43345
H         -0.38408        0.67418        5.37839
C         -0.25581        0.51718        3.25159
H          0.52197       -0.23055        3.26255
Pd        -1.31333        1.24664       -1.22683
Cl        -2.83662        1.94173       -2.71913
Cl        -0.15875       -0.04475       -2.65885
C         -4.21869        4.38832        0.27329
C         -4.23595        1.82707        0.19760
H         -2.10142        5.81365       -1.04058
H         -0.92214        4.49974       -0.92827
H         -2.41102        4.27457       -1.84276
H         -4.47657        5.26508       -0.33848
H         -4.58177        4.61741        1.28595
H         -4.23110        1.07500       -0.60331
C         -4.94339        3.11942       -0.25772
C         -4.80372        1.23607        1.47093
H         -2.24359        4.64235        1.19918
H         -5.99167        3.10246        0.07453
H         -4.98022        3.15589       -1.35647
H         -4.18269        0.41792        1.84234
H         -4.85599        1.99101        2.25670
H         -5.81542        0.85265        1.31886
C         -0.99049       -4.05517       -0.09895
C          0.35565       -3.65500        0.10199
C          0.61882       -2.30738        0.27697
C         -0.39712       -1.39044        0.32913
C         -1.70693       -1.78162        0.23954
C         -2.04062       -3.11335        0.05427
O         -1.28356       -5.39122       -0.48212
C          1.52944       -4.64714        0.09444
H          1.63037       -1.95105        0.36022
H         -2.46876       -1.02326        0.29843
C         -3.52402       -3.50543       -0.02870
C          4.49065        0.87806        0.22635
C          3.82021        1.27807        1.41021
C          2.44506        1.12604        1.47025
C          1.73240        0.66314        0.39373
C          2.36901        0.38821       -0.78811
C          3.73950        0.52169       -0.92164
O          5.90845        0.79615        0.20487
C          4.56882        1.82187        2.63712
H          1.91243        1.35882        2.37365
H          1.76837        0.05524       -1.61508
C          4.38438        0.24357       -2.28827
C          2.04389       -4.81648       -1.34314
C          2.69248       -4.12618        0.97049
C          1.10553       -6.00882        0.67362
C         -3.75767       -4.91697        0.53896
C         -4.39472       -2.53562        0.80189
C         -3.98442       -3.43530       -1.49297
C         -1.29211       -5.60528       -1.88807
H          2.89414       -5.49726       -1.37617
H          1.27082       -5.21336       -1.99598
H          2.36181       -3.85825       -1.75277
H          2.34108       -3.86986        1.96962
H          3.46863       -4.88423        1.07332
H          3.16317       -3.24575        0.53497
H          1.95132       -6.69414        0.72319
H          0.70593       -5.88966        1.68017
H          0.33738       -6.47793        0.06399
H         -3.23734       -5.67161       -0.04532
H         -3.39709       -4.98198        1.56499
H         -4.81748       -5.17045        0.53496
H         -4.01426       -2.44496        1.81900
H         -4.42554       -1.54378        0.35398
H         -5.42336       -2.89085        0.85935
H         -3.41612       -4.11807       -2.11935
H         -5.03914       -3.69349       -1.58382
H         -3.84682       -2.43018       -1.89128
H         -0.55862       -6.36893       -2.14609
H         -2.27428       -5.96160       -2.19806
H         -1.05684       -4.67963       -2.41501
C          6.41896       -0.48090        0.56745
C          3.66991        2.78602        3.44436
C          4.97048        0.65074        3.54665
C          5.81709        2.61837        2.21575
C          3.41927        0.62985       -3.43284
C          5.66328        1.07834       -2.48147
C          4.70450       -1.25461       -2.40176
H          4.23808        3.27109        4.23779
H          3.26131        3.56506        2.80130
H          2.84141        2.26298        3.91978
H          5.62644       -0.04412        3.02790
H          5.49238        1.00689        4.43446
H          4.09053        0.09597        3.87167
H          6.54089        1.98332        1.71088
H          5.54623        3.42384        1.53398
H          6.31213        3.05810        3.08122
H          3.91694        0.55859       -4.39962
H          2.55278       -0.02836       -3.47118
H          3.06590        1.65354       -3.31280
H          6.08239        0.92894       -3.47620
H          5.45024        2.13976       -2.35900
H          6.42826        0.80699       -1.75853
H          5.39179       -1.57211       -1.62114
H          5.15814       -1.48530       -3.36527
H          3.79661       -1.84922       -2.30532
H          6.98595       -0.89936       -0.26386
H          7.09114       -0.37638        1.41901
H          5.60375       -1.15716        0.82818
