64
-97.21938229
Cl        -1.55789       -0.83795       -2.73189
Cl         1.51380       -1.33036       -2.99805
P          1.88291       -0.69267        0.28947
C          2.03016       -2.36299        1.07702
C          3.67971       -0.35660       -0.05318
P         -1.24622       -0.14958        0.47497
C          1.28170        0.57408        1.46332
C         -0.13931        0.83463        1.54995
C         -0.32937        1.96350        2.44905
C          0.97762        2.38820        2.92056
C          1.97772        1.52473        2.31699
H         -1.28909        2.38264        2.75711
H          1.17263        3.20082        3.62377
Pd         0.15101       -0.88153       -1.27585
H          3.05812        1.58062        2.46431
C         -5.03514        2.02927       -0.83863
C         -4.04901        2.72989       -0.17346
C         -2.89765        2.08106        0.23189
C         -2.73030        0.74039       -0.03192
C         -3.71672        0.03916       -0.68741
C         -4.87146        0.68275       -1.09529
H         -5.93297        2.53338       -1.15731
H         -4.17508        3.78086        0.02913
H         -2.12450        2.62066        0.74942
H         -3.57544       -1.01140       -0.88567
H         -5.63918        0.13339       -1.61501
C         -2.54629       -3.97282        2.55432
C         -2.39144       -2.80924        3.28270
C         -2.00174       -1.64452        2.64563
C         -1.76720       -1.65629        1.29023
C         -1.92859       -2.80959        0.55767
C         -2.31794       -3.97507        1.19194
H         -2.84948       -4.88072        3.04984
H         -2.57248       -2.80760        4.34501
H         -1.87198       -0.72704        3.19782
H         -1.76015       -2.78911       -0.50725
H         -2.44440       -4.88155        0.62308
C          4.02332       -0.45216       -1.52385
H          3.89245        0.65150        0.32636
C          4.39150       -1.43168        0.79170
H          4.60979       -1.03696        1.79482
C          3.52265       -2.71137        0.91896
H          5.36835       -1.66797        0.34500
C          1.58011       -2.30568        2.52086
H          1.39537       -3.04839        0.49886
H          3.85177       -3.32109        1.77275
H          3.66916       -3.34184        0.02994
H          2.19516       -1.60276        3.08627
H          0.54488       -1.97080        2.60220
H          1.65812       -3.28170        3.00558
H          5.09055       -0.29649       -1.69570
H          3.76784       -1.43961       -1.91138
H          3.48050        0.28279       -2.11937
Fe         0.87465        2.44330        0.85826
C          2.25328        3.17572       -0.49583
C          1.42829        4.24733        0.03634
C          0.04323        3.96733       -0.30108
C          0.01327        2.69444       -0.99807
C          1.37443        2.21809       -1.13753
H          3.34267        3.11536       -0.44453
H          1.79244        5.13626        0.55643
H         -0.81700        4.59996       -0.07268
H         -0.86846        2.21124       -1.42364
H          1.67463        1.32625       -1.68886
