59
-75.79783261
Cl         1.38649        0.63864        2.40749
P          1.55585        0.04943       -0.74910
P         -1.69513       -0.13601       -0.82866
C          0.58382        0.53943       -2.24433
H          0.33660        1.59922       -2.15813
H          1.22802        0.42600       -3.12125
C         -0.66826       -0.28765       -2.35839
H         -0.41910       -1.34163       -2.49612
H         -1.28267        0.00868       -3.21395
C          2.25411       -1.64426       -1.00980
H          1.66867       -2.08886       -1.82530
C          3.14155        1.00149       -0.55420
H          3.16813        1.31585        0.49707
C         -2.89802       -1.53105       -0.61220
H         -2.92914       -1.72874        0.46656
C         -2.89357        1.27793       -0.97594
H         -2.78331        1.65916       -1.99833
C          3.68946       -1.34574       -1.47845
H          4.34009       -2.20332       -1.25195
H          3.70622       -1.24532       -2.57428
C          4.24579       -0.04449       -0.83746
H          5.00778        0.40032       -1.49315
H          4.78192       -0.28385        0.09156
C         -4.22562       -0.91148       -1.07788
H         -4.33843       -1.08618       -2.15702
H         -5.07538       -1.42741       -0.60479
C         -4.27032        0.61082       -0.79061
H         -4.60234        0.77232        0.24419
H         -5.02442        1.10694       -1.42011
C          2.16362       -2.52442        0.23987
H          2.41453       -3.55977       -0.03077
H          1.11959       -2.55957        0.57674
C          3.24198        2.23437       -1.45058
H          4.29072        2.56064       -1.49050
H          2.99324        1.94767       -2.48015
C         -2.52584       -2.80512       -1.36281
H         -3.37764       -3.49874       -1.33154
H         -2.39148       -2.56619       -2.42557
C         -2.64651        2.39761        0.03114
H         -3.50215        3.08700        0.01147
H         -2.64652        1.96896        1.04157
C          3.04482       -2.07798        1.39597
H          2.87139       -2.67313        2.29554
H          2.85883       -1.03590        1.65575
H          4.10425       -2.16788        1.15172
C          2.37484        3.39328       -0.98719
H          2.63777        3.70263        0.02622
H          1.32163        3.12120       -0.97297
H          2.47670        4.26710       -1.63492
C         -1.28709       -3.48469       -0.80640
H         -0.42308       -2.82431       -0.86066
H         -1.03702       -4.39760       -1.35177
H         -1.42057       -3.75299        0.24338
C         -1.36164        3.16770       -0.21337
H         -0.49407        2.51681       -0.11735
H         -1.34006        3.59548       -1.21748
H         -1.23188        3.98653        0.49805
Cl        -1.76695        0.03603        2.37613
Pd        -0.12066        0.05276        0.84787
