105
-153.06131376
Cl         3.17977        1.10132       -1.26807
Pd         0.94039        0.84385       -1.16382
P         -1.40170        0.77397       -1.10075
N         -1.47803       -0.75091       -1.98100
C         -0.52659       -1.73128       -1.66139
C         -0.37486       -2.24317       -0.34388
C          0.63446       -3.18948       -0.07544
C          0.75838       -3.75837        1.31751
C          2.07322       -4.50933        1.57620
C          2.38416       -5.47453        0.42975
C          2.49585       -4.72505       -0.90699
C          1.45240       -3.65235       -1.10927
C          1.28703       -3.13981       -2.39008
C          0.32465       -2.20393       -2.66411
H          0.22391       -1.80730       -3.65912
H          1.93071       -3.49235       -3.17822
H          3.48812       -4.26947       -0.99281
H          3.30319       -6.04068        0.63780
H          2.89184       -3.78577        1.67416
H          0.65506       -2.94528        2.04416
C         -1.41327       -1.96702        0.68054
C         -1.07689       -1.33318        1.90239
C         -1.99695       -1.35026        2.94937
C         -3.23450       -1.91583        2.79331
C         -3.60731       -2.50336        1.59154
C         -4.99099       -3.09352        1.48828
C         -5.13737       -4.11699        0.35346
C         -4.52920       -3.57129       -0.94092
C         -3.03783       -3.24523       -0.75906
C         -2.69625       -2.53716        0.53165
H         -2.44734       -4.16745       -0.81389
H         -5.06617       -2.66106       -1.23650
H         -6.19128       -4.39242        0.20541
H         -5.70832       -2.27674        1.34447
H         -3.94028       -1.89637        3.60650
H         -1.72934       -0.88231        3.88076
N          0.15622       -0.72464        2.12749
P          1.24377        0.18708        1.08316
C          2.80645       -0.69640        1.13775
C          3.50138       -0.68128        2.32412
C          4.70881       -1.34970        2.42535
C          5.22878       -2.03600        1.33665
C          4.51840       -2.02939        0.14485
C          3.30321       -1.37652        0.05263
H          2.74346       -1.38167       -0.86895
H          4.93006       -2.52978       -0.71469
C          6.54129       -2.73259        1.42970
H          5.25782       -1.33578        3.35131
H          3.09816       -0.14178        3.16713
C          1.53745        1.78222        1.87290
C          0.86667        2.10493        3.03010
C          1.07307        3.33178        3.63365
C          1.96514        4.24487        3.08932
C          2.63324        3.90560        1.92130
C          2.42052        2.67936        1.32171
H          2.93956        2.41659        0.41616
H          3.31921        4.60968        1.48209
C          2.16782        5.57753        3.72218
H          0.53809        3.58917        4.53188
H          0.16725        1.40446        3.45389
H          0.47160       -0.61223        3.08309
H         -1.46560       -0.46214       -2.95070
C         -1.68458        2.19035       -2.16709
C         -1.11156        3.39796       -1.84456
C         -1.32465        4.49676       -2.65706
C         -2.11275        4.39151       -3.79524
C         -2.69938        3.16812       -4.09053
C         -2.48443        2.06961       -3.27786
H         -2.94453        1.12105       -3.50273
H         -3.32563        3.08089       -4.96192
C         -2.35922        5.57915       -4.65908
H         -0.87721        5.44464       -2.41126
H         -0.49792        3.47654       -0.96049
C         -2.47607        0.97087        0.30664
C         -1.99494        1.64286        1.40282
C         -2.82541        1.86633        2.48583
C         -4.14132        1.42245        2.46800
C         -4.61502        0.77454        1.33420
C         -3.78215        0.54945        0.25280
H         -4.14029        0.04529       -0.63077
H         -5.63898        0.44356        1.30518
C         -5.03846        1.66615        3.63071
H         -2.45376        2.38407        3.35338
H         -0.97061        1.97651        1.40816
Cl         0.80457        1.19604       -3.38257
H          2.43232       -5.43515       -1.74157
H          2.03693       -5.04279        2.53660
H          1.58586       -6.22442        0.36212
H         -0.09311       -4.42491        1.49841
H         -4.67579       -4.28017       -1.76810
H         -2.69783       -2.62926       -1.59885
H         -5.25672       -3.55135        2.44977
H         -4.62516       -5.04653        0.63234
H          7.34883       -2.08352        1.08849
H          6.75880       -3.02973        2.45656
H          6.55108       -3.63420        0.81546
H          1.43854        6.29802        3.34935
H          2.05951        5.51878        4.80612
H          3.16448        5.96712        3.51020
H         -1.50841        6.26168       -4.64147
H         -2.52412        5.28393       -5.69623
H         -3.23896        6.12843       -4.32103
H         -5.55526        2.62129        3.52820
H         -5.79224        0.88213        3.71665
H         -4.47495        1.68596        4.56465
