75
-122.81425510
P          1.86937       -0.54407       -0.01105
C          3.20302       -1.28933       -0.96137
C          4.48360       -1.23885       -0.45913
C          5.51899       -1.83965       -1.15230
C          5.26145       -2.49839       -2.33805
C          3.97191       -2.56503       -2.82681
C          2.93912       -1.96416       -2.13080
H          1.92701       -2.01281       -2.49935
H          3.76924       -3.08309       -3.74973
H          6.06729       -2.96536       -2.88047
H          6.52346       -1.79672       -0.76443
H          4.66536       -0.74392        0.48202
C          1.71069       -1.54316        1.47498
C          1.70055       -0.96236        2.72237
C          1.67053       -1.75819        3.85236
C          1.65163       -3.13288        3.72451
C          1.65772       -3.71224        2.47113
C          1.68960       -2.91276        1.34254
H          1.71326       -3.35011        0.35672
H          1.63920       -4.78496        2.37093
H          1.62471       -3.75462        4.60444
H          1.65785       -1.30517        4.82999
H          1.70943        0.11161        2.80672
C          2.22310        1.17004        0.41669
C          3.36394        1.83899        0.03854
C          3.52330        3.18592        0.33296
C          2.49008        3.85488        0.98777
C          1.33307        3.20243        1.35136
C          1.19462        1.83370        1.07086
O          0.01570        1.14085        1.39783
C         -1.18705        1.81061        1.11268
C         -1.34562        3.17402        1.40794
C         -2.53232        3.80101        1.09925
C         -3.57604        3.11217        0.48289
C         -3.39475        1.77320        0.16601
C         -2.22227        1.13019        0.48736
P         -1.84537       -0.56413        0.00417
C         -1.70100       -1.60709        1.46142
C         -1.63462       -1.05370        2.71941
C         -1.61501       -1.87382        3.83217
C         -1.66005       -3.24503        3.67616
C         -1.72014       -3.79693        2.41181
C         -1.74302       -2.97315        1.30065
H         -1.80884       -3.38779        0.30700
H         -1.75199       -4.86707        2.28974
H         -1.64078       -3.88578        4.54255
H         -1.55895       -1.44269        4.81813
H         -1.58969        0.01759        2.82462
C         -3.16093       -1.27148       -1.00005
C         -4.43016       -1.33390       -0.47107
C         -5.45589       -1.89837       -1.20776
C         -5.19987       -2.40572       -2.46604
C         -3.92168       -2.35569       -2.98571
C         -2.89847       -1.79124       -2.24657
H         -1.89628       -1.74783       -2.64131
H         -3.72062       -2.75420       -3.96654
H         -5.99815       -2.84463       -3.04204
H         -6.45150       -1.94448       -0.79801
H         -4.61010       -0.95246        0.52195
Pd         0.00599        0.04477       -1.34444
Cl        -1.61745        0.94308       -2.63365
Cl         1.54020        0.56276       -2.90928
H         -4.16588        1.24118       -0.36222
C         -4.83272        3.81363        0.10886
H         -4.76412        4.21472       -0.90308
H         -5.03827        4.64259        0.78731
H         -5.68651        3.13570        0.14525
H         -2.64515        4.84657        1.32563
S          0.00078        4.05205        2.15750
H          2.58723        4.90467        1.20152
C          4.74474        3.91527       -0.10003
H          4.12655        1.32068       -0.51491
H          4.61494        4.32377       -1.10300
H          4.96942        4.74218        0.57489
H          5.61244        3.25438       -0.11526
