111
-148.55500397
P         -2.69782        2.00917       -0.39135
P          0.03925        0.58072        0.29197
C         -1.91135        2.29732        1.21614
C         -0.69601        1.70866        1.49061
C         -3.48137        3.54942       -1.05436
C         -2.67980        4.12679       -2.20054
C         -2.52308        3.08916        2.16676
H         -3.48159        3.53334        1.95347
C         -1.90908        3.29362        3.39057
H         -2.38592        3.91130        4.13403
C         -0.68848        2.70513        3.66161
H         -0.21246        2.86181        4.61557
C         -0.08153        1.90610        2.70935
H          0.86284        1.42494        2.91014
Pd        -1.11986        0.92980       -1.68373
Cl        -2.56023        1.03096       -3.39882
Cl         0.55444       -0.10460       -2.77050
C         -4.89860        3.07970       -1.43244
C         -4.17484        0.89798       -0.30681
H         -3.14257        5.03492       -2.59388
H         -1.66144        4.37160       -1.88917
H         -2.60777        3.41225       -3.02178
H         -4.90470        2.79962       -2.49484
H         -5.61552        3.90985       -1.34148
H         -4.06762        0.18807       -1.13800
C         -5.34605        1.86105       -0.57544
C         -4.24561        0.16781        1.01653
H         -3.52475        4.25948       -0.21861
H         -5.74100        2.21477        0.38691
H         -6.17857        1.32620       -1.05740
H         -5.13349       -0.46590        1.07645
H         -3.36815       -0.46499        1.16386
H         -4.28423        0.87382        1.84808
C         -1.18293       -3.70792        1.21936
C         -0.48520       -3.40604        0.02206
C         -0.16462       -2.08404       -0.23080
C         -0.43169       -1.10171        0.68438
C         -1.00531       -1.40334        1.89135
C         -1.36675       -2.70307        2.20380
O         -1.72797       -5.00416        1.41938
C         -0.09188       -4.47352       -1.01036
H          0.28439       -1.79140       -1.16396
H         -1.17422       -0.60221        2.58874
C         -1.97134       -3.00449        3.58423
C          4.57860        0.86512        0.07517
C          3.78533        1.62818       -0.81975
C          2.40703        1.56080       -0.69747
C          1.82013        0.71247        0.20382
C          2.58033       -0.10663        0.99745
C          3.96358       -0.08026        0.93475
O          5.98369        1.06565        0.13053
C          4.39563        2.51231       -1.91903
H          1.76773        2.16084       -1.32184
H          2.07149       -0.77893        1.66685
C          4.77162       -1.06124        1.79860
C         -1.20980       -4.60439       -2.05570
C          1.21517       -4.07165       -1.73256
C          0.17042       -5.83189       -0.33545
C         -1.46183       -1.99520        4.63814
C         -3.50198       -2.89758        3.50817
C         -1.56201       -4.40726        4.06872
C         -3.04101       -5.16676        0.89797
H         -0.95478       -5.34913       -2.80912
H         -2.14899       -4.90009       -1.59420
H         -1.37510       -3.65400       -2.56282
H          1.56985       -4.88115       -2.36999
H          1.07304       -3.20145       -2.37147
H          2.00088       -3.84310       -1.01294
H         -0.72842       -6.22274        0.13439
H          0.51097       -6.57057       -1.06060
H          0.93459       -5.73562        0.43517
H         -1.84627       -0.99280        4.45457
H         -1.78618       -2.28338        5.63782
H         -0.37294       -1.95163        4.63924
H         -3.95656       -3.11338        4.47473
H         -3.80456       -1.89400        3.21135
H         -3.91086       -3.59550        2.78183
H         -1.95778       -5.18240        3.41696
H         -0.47713       -4.50608        4.08552
H         -1.93607       -4.59945        5.07401
H         -3.03700       -5.93448        0.12455
H         -3.71124       -5.49018        1.69432
H         -3.40223       -4.22786        0.47629
C          6.38969        2.08041        1.03997
C          4.62009        3.92895       -1.37001
C          5.72359        1.92368       -2.42945
C          3.44598        2.59726       -3.13637
C          5.08588       -0.40692        3.15225
C          3.96745       -2.35750        2.05159
C          6.07622       -1.47310        1.09263
H          5.30082        3.91986       -0.52212
H          5.04249        4.58117       -2.13399
H          3.67958        4.36588       -1.03524
H          6.12193        2.51249       -3.25532
H          6.47684        1.90497       -1.64580
H          5.58014        0.90187       -2.77924
H          3.15645        1.60163       -3.47172
H          2.54091        3.15637       -2.90418
H          3.92970        3.10451       -3.97073
H          5.67207        0.49994        3.02457
H          4.16696       -0.13717        3.67231
H          5.64989       -1.08496        3.79226
H          3.61643       -2.78576        1.11301
H          4.58474       -3.10463        2.54990
H          3.10434       -2.17887        2.69127
H          6.61889       -2.21755        1.67466
H          6.73653       -0.62094        0.95144
H          5.86393       -1.89751        0.11190
H          7.06474        1.65564        1.78274
H          6.92525        2.86179        0.50112
H          5.52233        2.51217        1.54089
