111
-148.55689180
P         -2.35167        2.35535        0.58148
P          0.04049        0.27543        0.43083
C         -1.40470        1.96760        2.07242
C         -0.38878        1.03998        2.00825
C         -2.52279        4.17910        0.33564
C         -1.66340        4.64441       -0.81966
C         -1.71836        2.56810        3.27463
H         -2.51431        3.29409        3.31463
C         -1.01547        2.22744        4.41751
H         -1.25921        2.69471        5.35765
C         -0.00918        1.28255        4.35576
H          0.53283        1.01083        5.24661
C          0.30232        0.68409        3.14796
H          1.07803       -0.06328        3.08567
Pd        -1.47637        1.08940       -1.13517
Cl        -3.09814        1.92984       -2.43779
Cl        -0.59595       -0.29745       -2.66451
C         -4.03702        4.36119        0.12044
C         -4.13616        1.87520        0.72514
H         -1.95124        4.13788       -1.74288
H         -1.76558        5.71941       -0.98625
H         -0.60735        4.42623       -0.64212
H         -4.24252        4.35015       -0.95885
H         -4.35812        5.35346        0.47207
H         -4.38751        1.37043       -0.21719
C         -4.85550        3.23406        0.81161
C         -4.38252        0.95764        1.90463
H         -2.20640        4.65127        1.27485
H         -5.00719        3.48776        1.86973
H         -5.86483        3.16030        0.37907
H         -3.77399        0.05332        1.84028
H         -4.12809        1.45327        2.84268
H         -5.43114        0.65739        1.96487
C         -0.99403       -4.15198        0.66571
C         -2.00616       -3.19138        0.41183
C         -1.64735       -1.85445        0.38441
C         -0.33675       -1.47136        0.49805
C          0.65949       -2.40198        0.63537
C          0.36771       -3.75514        0.69168
O         -1.34627       -5.50269        0.92810
C         -3.47497       -3.57113        0.16605
H         -2.39507       -1.08955        0.26747
H          1.67463       -2.05240        0.70554
C          1.51796       -4.76721        0.81210
C          4.37490        1.05259       -0.78607
C          3.52021        0.29410       -1.62474
C          2.20631        0.11478       -1.22864
C          1.74963        0.58636       -0.02630
C          2.59873        1.24196        0.82760
C          3.92564        1.45961        0.49586
O          5.66607        1.43106       -1.24162
C          3.98247       -0.30098       -2.96428
H          1.50125       -0.37452       -1.87593
H          2.20661        1.59615        1.76346
C          4.84771        2.14979        1.51408
C         -4.14592       -2.55175       -0.78440
C         -3.58442       -4.95035       -0.50895
C         -4.23404       -3.57167        1.50122
C          1.81747       -5.02004        2.29729
C          1.16747       -6.09120        0.10870
C          2.79714       -4.22534        0.13546
C         -1.61895       -5.77478        2.29692
H         -5.14063       -2.88905       -1.07450
H         -4.26476       -1.57695       -0.31414
H         -3.55758       -2.42361       -1.69268
H         -3.01333       -4.96888       -1.43660
H         -3.20083       -5.73864        0.13388
H         -4.62097       -5.19114       -0.74348
H         -4.18572       -2.59049        1.97272
H         -5.28385       -3.82342        1.35298
H         -3.81027       -4.29328        2.19555
H          0.94800       -5.42320        2.81105
H          2.63700       -5.72844        2.41555
H          2.09734       -4.09292        2.79703
H          2.00848       -6.78365        0.13489
H          0.32280       -6.58235        0.58540
H          0.90598       -5.91383       -0.93397
H          2.59251       -3.93200       -0.89330
H          3.20282       -3.36483        0.66536
H          3.57717       -4.98614        0.11703
H         -1.49498       -4.87213        2.89654
H         -2.63921       -6.14358        2.40085
H         -0.93963       -6.54683        2.65789
C          5.69825        2.67265       -1.93459
C          3.75080        0.72535       -4.08350
C          5.46672       -0.70538       -2.90866
C          3.18140       -1.57973       -3.29983
C          6.29271        1.63262        1.39246
C          4.80749        3.66899        1.28970
C          4.38551        1.85458        2.95960
H          4.05921        0.32606       -5.04933
H          2.69576        0.99039       -4.14918
H          4.31073        1.63969       -3.90354
H          5.77750       -1.18408       -3.83696
H          6.10848        0.15811       -2.75335
H          5.64323       -1.40378       -2.09125
H          2.13658       -1.35877       -3.51250
H          3.58959       -2.07174       -4.18231
H          3.22166       -2.28814       -2.47375
H          6.32370        0.54986        1.50939
H          6.72132        1.87550        0.42341
H          6.93279        2.07486        2.15550
H          5.44356        4.18665        2.00728
H          5.14774        3.92975        0.29060
H          3.79216        4.04823        1.40323
H          5.10950        2.23179        3.68153
H          4.27943        0.78220        3.12161
H          3.43304        2.33231        3.18455
H          4.70065        3.11164       -1.97613
H          6.37657        3.35755       -1.42605
H          6.06986        2.51721       -2.94726
