105
-153.06255174
Cl         0.18134        2.21396        2.94987
Pd        -0.39647        1.45058        0.90929
P         -1.07162        0.50475       -1.15529
N         -0.57947       -0.95833       -2.00560
C          0.24680       -2.00861       -1.61681
C          0.31896       -2.47130       -0.27950
C          1.23284       -3.49525        0.04794
C          1.29324       -3.98787        1.47468
C          2.08147       -5.29236        1.67187
C          3.37213       -5.28468        0.84776
C          3.05571       -5.13297       -0.64728
C          2.04182       -4.05714       -0.94368
C          1.90517       -3.62904       -2.25827
C          1.02439       -2.63344       -2.59086
H          0.95070       -2.29300       -3.60901
H          2.51815       -4.08043       -3.02001
H          3.97342       -4.91981       -1.21048
H          4.00543       -4.44952        1.17272
H          2.30068       -5.45946        2.73591
H          1.73646       -3.19723        2.09112
C         -0.70880       -2.07444        0.71292
C         -0.32435       -1.45981        1.93462
C         -1.28592       -1.31590        2.93868
C         -2.57123       -1.75551        2.75579
C         -2.96629       -2.35784        1.56756
C         -4.38470       -2.86438        1.46299
C         -4.81257       -3.24979        0.03793
C         -3.70366       -4.03247       -0.66966
C         -2.41536       -3.20029       -0.75202
C         -2.03560       -2.51323        0.53811
H         -1.58191       -3.83607       -1.07580
H         -4.02878       -4.35042       -1.67043
H         -5.03524       -2.34272       -0.53682
H         -5.06332       -2.10556        1.87209
H         -3.29460       -1.63895        3.54501
H         -1.00432       -0.83920        3.86118
N          0.97097       -0.97196        2.15952
P          1.61652        0.22613        1.04355
C          2.57999       -0.33735       -0.34713
C          2.38280        0.26557       -1.56474
C          3.17399       -0.09252       -2.64088
C          4.17021       -1.04926       -2.49559
C          4.37594       -1.61804       -1.24515
C          3.58230       -1.25981       -0.17022
H          3.73867       -1.69198        0.80544
H          5.15893       -2.34604       -1.11915
C          5.02572       -1.43363       -3.65163
H          3.01968        0.36809       -3.60150
H          1.60578        1.00448       -1.66682
C          2.64717        1.44128        1.87225
C          3.28799        1.12370        3.04585
C          4.08733        2.06603        3.66734
C          4.25753        3.32653        3.11063
C          3.60393        3.62576        1.92268
C          2.80588        2.68211        1.30146
H          2.30035        2.90982        0.37578
H          3.72005        4.60409        1.48862
C          5.09152        4.35092        3.79807
H          4.58285        1.82810        4.59309
H          3.16700        0.14024        3.46991
H          1.09204       -0.52738        3.06032
H         -0.83509       -0.87416       -2.98178
C         -0.69314        1.91023       -2.21886
C         -1.11503        3.16732       -1.85713
C         -0.82912        4.25382       -2.66136
C         -0.11126        4.09051       -3.83793
C          0.29421        2.81284       -4.19834
C          0.00294        1.72859       -3.39126
H          0.32614        0.74045       -3.67190
H          0.83949        2.67233       -5.11604
C          0.18060        5.25611       -4.71757
H         -1.16241        5.23769       -2.37845
H         -1.66701        3.29199       -0.94041
C         -2.86691        0.43319       -1.09792
C         -3.54392        0.55412       -2.28865
C         -4.92699        0.51023       -2.30453
C         -5.64218        0.35942       -1.12464
C         -4.94120        0.23071        0.06585
C         -3.55887        0.25616        0.07505
H         -3.01170        0.15097        0.99846
H         -5.48499        0.11175        0.98717
C         -7.12938        0.29042       -1.13921
H         -5.45948        0.59810       -3.23607
H         -2.98694        0.68629       -3.20328
Cl        -2.36471        2.53470        1.04738
H          2.68175       -6.08412       -1.04462
H          1.46046       -6.14264        1.36313
H          3.96174       -6.19333        1.03504
H          0.26867       -4.11027        1.84798
H         -3.50349       -4.95877       -0.11662
H         -2.52129       -2.43580       -1.53053
H         -4.48970       -3.73299        2.12407
H         -5.74890       -3.82542        0.05197
H          4.48163       -1.33791       -4.59236
H          5.91054       -0.79813       -3.70747
H          5.35872       -2.46908       -3.56686
H          5.49387        5.07419        3.08743
H          4.50250        4.89665        4.53639
H          5.93486        3.88968        4.31393
H          0.27427        6.17443       -4.13619
H          1.11460        5.11360       -5.26296
H         -0.61717        5.39972       -5.44754
H         -7.55033        0.68793       -0.21466
H         -7.54250        0.86939       -1.96631
H         -7.46820       -0.74090       -1.24731
