111
-148.55580501
P         -2.74995        1.83992       -0.24197
P          0.12786        0.61253        0.21228
C         -1.84637        2.21251        1.28470
C         -0.57073        1.71905        1.45372
C         -3.73841        3.29090       -0.82737
C         -3.08023        3.97229       -2.00722
C         -2.42575        2.97750        2.27678
H         -3.43048        3.34535        2.14819
C         -1.71923        3.25267        3.43500
H         -2.17067        3.84991        4.21033
C         -0.43847        2.76092        3.59986
H          0.11014        2.97257        4.50288
C          0.13587        1.98714        2.60759
H          1.12756        1.58054        2.72806
Pd        -1.20460        0.89138       -1.66837
Cl        -2.76581        0.94979       -3.27687
Cl         0.44219        0.02937       -2.92632
C         -5.11351        2.66604       -1.12750
C         -4.09503        0.58454       -0.03494
H         -3.66615        4.82740       -2.35222
H         -2.07865        4.32695       -1.75257
H         -2.97932        3.28329       -2.84680
H         -5.14528        2.37791       -2.18737
H         -5.91140        3.41344       -0.99992
H         -3.96721       -0.13383       -0.85593
C         -5.37675        1.41307       -0.24376
C         -4.00628       -0.11177        1.30572
H         -3.81185        3.98110        0.02260
H         -5.75595        1.73064        0.73730
H         -6.17073        0.78652       -0.67780
H         -4.06414        0.61025        2.12226
H         -4.81870       -0.83007        1.43796
H         -3.06178       -0.64895        1.40965
C         -1.19686       -3.62955        1.19929
C         -0.76323       -3.30998       -0.11267
C         -0.36533       -2.01041       -0.36989
C         -0.33174       -1.06928        0.62396
C         -0.63844       -1.40157        1.91702
C         -1.03468       -2.68663        2.24709
O         -1.83389       -4.87309        1.45349
C         -0.76907       -4.32679       -1.26364
H         -0.09293       -1.70077       -1.36385
H         -0.58235       -0.63350        2.66820
C         -1.31536       -3.02507        3.71915
C          4.66301        0.93472       -0.02754
C          3.86374        1.62648       -0.97378
C          2.48576        1.54246       -0.85726
C          1.90670        0.74406        0.09334
C          2.67476       -0.01136        0.94077
C          4.05774        0.03381        0.88507
O          6.06366        1.16495        0.02559
C          4.46882        2.45993       -2.11470
H          1.84080        2.09298       -1.52002
H          2.17251       -0.64576        1.65091
C          4.87393       -0.87450        1.81800
C         -2.12152       -4.25910       -1.98941
C          0.35209       -4.00548       -2.27847
C         -0.51236       -5.75385       -0.74718
C         -2.78102       -2.70095        4.04623
C         -1.02068       -4.50700        4.01420
C         -0.40522       -2.19175        4.65022
C         -3.24689       -4.83847        1.29533
H         -2.15342       -4.96070       -2.82250
H         -2.94200       -4.49773       -1.31675
H         -2.29691       -3.25829       -2.38372
H          0.15775       -3.07814       -2.81515
H          1.31499       -3.91547       -1.77640
H          0.43593       -4.79462       -3.02522
H          0.42496       -5.79849       -0.19361
H         -1.30731       -6.08474       -0.08358
H         -0.45412       -6.46436       -1.57134
H         -3.01017       -2.93601        5.08529
H         -2.98673       -1.64270        3.88741
H         -3.46079       -3.26869        3.41522
H         -1.15554       -4.73048        5.07220
H         -1.68198       -5.16250        3.45312
H          0.00484       -4.75548        3.74288
H         -0.50856       -2.51766        5.68498
H          0.64161       -2.30093        4.36769
H         -0.65929       -1.13318        4.62215
H         -3.57288       -3.83962        1.00211
H         -3.54725       -5.55661        0.53251
H         -3.72716       -5.11657        2.23331
C          6.44402        2.23498        0.88133
C          3.52812        2.46544       -3.34170
C          4.66694        3.90735       -1.64063
C          5.81009        1.86628       -2.58279
C          4.09252       -2.16911        2.14121
C          6.19619       -1.30187        1.15548
C          5.15552       -0.13164        3.13266
H          2.61198        3.02024       -3.14549
H          4.01028        2.93718       -4.19753
H          3.25799        1.44910       -3.62732
H          5.08482        4.52466       -2.43548
H          3.71725        4.34637       -1.33585
H          5.34141        3.95451       -0.78907
H          6.55688        1.90167       -1.79353
H          5.68577        0.82508       -2.87851
H          6.20617        2.41660       -3.43585
H          3.76181       -2.66114        1.22682
H          4.71818       -2.87143        2.69155
H          3.21809       -1.96943        2.75894
H          6.84115       -0.44660        0.96955
H          6.74567       -1.99726        1.78948
H          6.00605       -1.79064        0.20052
H          5.72289       -0.75750        3.82103
H          4.22390        0.15094        3.62251
H          5.72583        0.77734        2.95733
H          5.56428        2.68311        1.34494
H          7.11375        1.86252        1.65627
H          6.97751        2.99134        0.30595
