171
-217.83560285
P         -1.65847        0.77635        0.34736
P          1.45941       -0.32883       -0.39596
C         -0.97721        1.72466       -1.03371
C          0.39563       -1.11767       -1.62402
C         -0.44359        1.15582       -2.18440
C          0.15398        1.99622       -3.14214
C          0.17328        3.36381       -2.92733
C         -0.36168        3.91142       -1.78127
C         -0.92771        3.08391       -0.83073
C          0.42471       -2.47814       -1.81457
C         -0.38605       -3.06659       -2.76499
C         -1.24373       -2.28667       -3.51136
C         -1.31062       -0.91679       -3.31968
C         -0.45509       -0.31640       -2.37589
Cl         2.39540        1.42248        2.22206
Cl        -0.54799        0.99901        3.46534
C         -2.26744       -0.10139       -4.11745
C          0.78046        1.44913       -4.37710
H         -0.33035        4.97687       -1.62197
H         -1.32715        3.49583        0.08431
H          1.07092       -3.08936       -1.20949
H         -0.35344       -4.13262       -2.91977
H          0.62456        4.00080       -3.66927
H         -1.87277       -2.74212       -4.25702
C         -3.03304       -3.49999       -0.25193
C         -1.88838       -3.28235        0.50411
C         -1.46585       -1.96982        0.67837
C         -2.15449       -0.93309        0.09166
C         -3.28636       -1.16916       -0.64920
C         -3.75461       -2.46456       -0.83084
H         -3.38412       -4.50734       -0.37981
H         -0.59305       -1.75033        1.26624
H         -3.80931       -0.32998       -1.07344
C         -5.32999        3.02170        1.77532
C         -5.11907        2.85142        0.41132
C         -3.98038        2.16420        0.01073
C         -3.09439        1.67636        0.93935
C         -3.31761        1.85708        2.27938
C         -4.44235        2.53377        2.72793
H         -6.20389        3.55066        2.10324
H         -3.77384        2.01839       -1.03683
H         -2.59256        1.48348        2.97934
C          3.93161       -3.53019        1.71345
C          3.89713       -3.48837        0.32586
C          3.15203       -2.48289       -0.27817
C          2.43583       -1.58330        0.47450
C          2.49628       -1.64103        1.84702
C          3.25376       -2.60470        2.49597
H          4.50705       -4.30208        2.18876
H          3.12309       -2.40006       -1.35002
H          1.97240       -0.91165        2.43533
C          4.30841        2.41925       -2.59514
C          4.12611        1.12308       -3.06088
C          3.25360        0.29971       -2.35846
C          2.60255        0.76249       -1.24128
C          2.78721        2.04973       -0.80469
C          3.64270        2.91000       -1.47925
H          4.99882        3.06290       -3.10811
H          3.05948       -0.70492       -2.69072
H          2.26387        2.37627        0.07519
Pd         0.39877        0.75201        1.43804
C         -0.81863       -5.52691        0.09197
C         -1.17388       -4.47413        1.15893
C         -2.10756       -5.09824        2.21138
C          0.12781       -4.04079        1.85436
H         -1.70839       -5.90583       -0.40877
H         -0.16166       -5.10250       -0.66557
H         -0.30397       -6.37617        0.54119
H         -3.02877       -5.45973        1.75562
H         -1.62714       -5.93997        2.70988
H         -2.37574       -4.36384        2.97072
H          0.63125       -4.89535        2.30615
H          0.81743       -3.59186        1.14179
H         -0.07440       -3.31810        2.64367
C         -4.70836       -3.64561       -2.82906
C         -5.04247       -2.76961       -1.60914
C         -5.72614       -1.47953       -2.10216
C         -6.02710       -3.51572       -0.68903
H         -5.60937       -3.89333       -3.38997
H         -4.02801       -3.12455       -3.50073
H         -4.23362       -4.57892       -2.52845
H         -5.99136       -0.83548       -1.26413
H         -5.07616       -0.92157       -2.77522
H         -6.64267       -1.70963       -2.64521
H         -6.96547       -3.71862       -1.20494
H         -5.61737       -4.46915       -0.35798
H         -6.25061       -2.92143        0.19680
C         -7.28579        4.11731       -0.02558
C         -6.07634        3.40071       -0.65605
C         -6.59544        2.23729       -1.52138
C         -5.31842        4.40655       -1.54269
H         -6.96772        4.96618        0.57941
H         -7.95583        4.49611       -0.79732
H         -7.85950        3.43781        0.60447
H         -7.11061        1.50032       -0.90565
H         -7.29525        2.59453       -2.27664
H         -5.77937        1.73285       -2.03738
H         -4.48020        3.93229       -2.05209
H         -5.97500        4.82895       -2.30311
H         -4.92372        5.22665       -0.94320
C         -5.95244        3.48616        4.54485
C         -4.64982        2.72302        4.23749
C         -3.46610        3.52215        4.81423
C         -4.72034        1.34225        4.91614
H         -6.82096        2.94881        4.16442
H         -6.08479        3.60727        5.61994
H         -5.93844        4.48139        4.10091
H         -3.59228        3.68972        5.88362
H         -2.52406        2.99468        4.66897
H         -3.38366        4.49345        4.32704
H         -3.79616        0.78346        4.77327
H         -4.88610        1.44252        5.98859
H         -5.53641        0.75081        4.50153
C          4.01803       -5.93168       -0.19735
C          4.63997       -4.55444       -0.49153
C          6.12948       -4.55850       -0.10050
C          4.53802       -4.28411       -2.00579
H          4.10546       -6.18666        0.85827
H          2.95900       -5.93815       -0.45554
H          4.51150       -6.71451       -0.77304
H          6.57409       -3.57824       -0.27148
H          6.26503       -4.80912        0.95076
H          6.68479       -5.28830       -0.68948
H          3.50111       -4.30418       -2.34096
H          4.96596       -3.31430       -2.25856
H          5.08027       -5.04171       -2.57139
C          4.23089       -3.71950        4.56613
C          3.35945       -2.56873        4.02831
C          1.95724       -2.68778        4.65331
C          3.99619       -1.23113        4.45115
H          4.29173       -3.68241        5.65375
H          3.81346       -4.68816        4.29161
H          5.24711       -3.65720        4.17738
H          1.49494       -3.63682        4.38501
H          2.01175       -2.63952        5.74065
H          1.30230       -1.88389        4.31941
H          4.10868       -1.17632        5.53365
H          4.98211       -1.11525        4.00174
H          3.38538       -0.38577        4.13628
C          4.40019       -0.74904       -4.76173
C          4.92140        0.61742       -4.27354
C          6.39786        0.46750       -3.86731
C          4.80576        1.61798       -5.43999
H          4.93940       -1.07339       -5.65165
H          4.53481       -1.51758       -4.00147
H          3.34161       -0.69587       -5.01554
H          6.50016       -0.23710       -3.04203
H          6.99810        0.10251       -4.70056
H          6.81373        1.42178       -3.54518
H          5.34540        1.25642       -6.31520
H          3.76470        1.76208       -5.72614
H          5.22066        2.59008       -5.17784
C          3.52431        5.32350       -2.15534
C          3.87729        4.35333       -1.01310
C          5.35620        4.52401       -0.62240
C          3.00420        4.70330        0.20871
H          2.48336        5.20350       -2.45336
H          3.66873        6.35858       -1.84629
H          4.14606        5.14799       -3.03235
H          5.62552        3.82922        0.17291
H          6.01356        4.33345       -1.46996
H          5.55219        5.53586       -0.26812
H          3.24184        4.06285        1.05781
H          3.16794        5.73508        0.51892
H          1.94494        4.59174       -0.02153
H         -1.82422        0.20243       -5.06657
H          1.75897        1.90119       -4.54231
H         -2.56323        0.79965       -3.57767
H         -3.17488       -0.66521       -4.33832
H          0.16349        1.65558       -5.25273
H          0.92456        0.37012       -4.31045
