59
-75.79859177
Cl         1.59093        0.98648        2.32042
P          1.67365        0.06457       -0.79285
P         -1.48830       -0.22590       -0.78563
C          0.69655        0.37168       -2.32881
H          0.39827        1.42300       -2.34107
H          1.34125        0.19917       -3.19604
C         -0.50900       -0.52752       -2.32405
H         -0.20501       -1.57758       -2.32847
H         -1.15496       -0.36820       -3.19307
C          2.47443       -1.60089       -0.88913
H          2.26298       -1.99244       -1.89141
C          3.17773        1.12652       -0.62032
H          3.27946        1.33803        0.45122
C         -2.61123       -1.61452       -0.29712
H         -2.44331       -1.77931        0.77429
C         -2.72564        1.12908       -1.01244
H         -2.82517        1.28524       -2.09344
C          3.97634       -1.29355       -0.73114
H          4.26946       -1.49140        0.30891
H          4.57698       -1.98377       -1.34249
C          4.30397        0.18499       -1.08146
H          4.42946        0.28847       -2.16832
H          5.26516        0.49192       -0.64102
C         -4.01504       -1.02886       -0.53497
H         -4.35901       -1.32843       -1.53451
H         -4.73769       -1.46734        0.16998
C         -4.01557        0.52187       -0.43235
H         -4.09977        0.81607        0.62300
H         -4.89966        0.94828       -0.93043
C          1.90489       -2.52934        0.17643
H          0.80909       -2.54032        0.09656
H          2.11437       -2.10092        1.16606
C          3.07160        2.43205       -1.39793
H          4.06006        2.91096       -1.43474
H          2.82182        2.20501       -2.44243
C         -2.31931       -2.89196       -1.07513
H         -2.46019       -2.69421       -2.14598
H         -1.25682       -3.14766       -0.96463
C         -2.27069        2.41354       -0.33126
H         -2.14758        2.22018        0.74267
H         -1.26762        2.67606       -0.69360
C          2.44896       -3.94706        0.08564
H          2.22483       -4.39293       -0.88530
H          2.02421       -4.59854        0.85276
H          3.53372       -3.96443        0.20485
C          2.05173        3.38890       -0.79882
H          1.95937        4.30940       -1.37958
H          2.32547        3.66819        0.22040
H          1.06309        2.93227       -0.74502
C         -3.18310       -4.06502       -0.63619
H         -3.03894       -4.28463        0.42340
H         -2.95344       -4.97518       -1.19501
H         -4.24412       -3.85245       -0.77873
C         -3.22662        3.57648       -0.55012
H         -2.87769        4.49031       -0.06383
H         -3.34519        3.79411       -1.61326
H         -4.21917        3.35397       -0.15443
Cl        -1.59473        0.16556        2.35829
Pd         0.07000        0.24161        0.85423
