45
-71.81410650
C          0.32646        0.63945        2.48854
P          0.94514        0.62310        0.77141
P         -1.61930        0.24869       -1.04385
C         -2.39486       -0.10240       -2.65675
Cl         1.86257       -2.33975        0.31371
H          0.70965        1.51017        3.01288
H         -2.77885       -1.11846       -2.66632
Cl        -1.12260       -2.83129       -1.35430
C          0.29349        2.02143       -0.16542
C         -0.80701        1.85907       -0.97867
C         -1.31093        2.93142       -1.68566
C         -0.69852        4.16843       -1.58623
C          0.40877        4.32937       -0.77591
C          0.90563        3.25345       -0.06147
H         -2.18309        2.79778       -2.30473
H         -1.08828        5.00717       -2.13923
H          0.88539        5.29269       -0.69829
H          1.76855        3.36358        0.57571
Pd         0.03437       -1.20937       -0.32364
H         -1.66092        0.00452       -3.45037
H          0.64547       -0.25985        3.00765
H         -3.21604        0.58597       -2.83471
C         -4.48305       -0.18855        2.45749
C         -3.98406        1.05755        2.13089
C         -3.12276        1.19530        1.05739
C         -2.77294        0.08849        0.31893
C         -3.25883       -1.15596        0.64619
C         -4.12079       -1.29738        1.71783
H         -5.15375       -0.29653        3.29423
H         -4.26320        1.92119        2.71182
H         -2.71795        2.15922        0.79443
H         -2.93565       -2.01102        0.07419
H         -4.50242       -2.27099        1.97788
C          5.47865        0.50052        0.40814
C          4.69037        0.70029       -0.70774
C          3.31330        0.74157       -0.57934
C          2.73634        0.58712        0.66061
C          3.51768        0.38279        1.77502
C          4.89462        0.34083        1.64926
H          6.55136        0.46526        0.30971
H          5.14503        0.82016       -1.67735
H          2.68255        0.89114       -1.44188
H          3.05118        0.25008        2.73750
H          5.50999        0.17913        2.51903
H         -0.75905        0.67754        2.48917
