72
-108.40567705
Cl        -1.78268        0.76941        2.68620
Cl         0.91997       -0.93326        2.75395
P          1.14078       -1.10701       -0.28569
P         -2.26480        0.12609       -0.38296
C         -3.25597       -1.47753       -0.16905
C         -3.62373       -1.64847        1.30621
C         -4.51433       -1.42815       -1.02803
C         -3.34430        1.67215       -0.11967
C         -4.14959        1.98106       -1.38840
C         -1.45009        0.43470       -2.05679
C         -1.49472       -0.72719       -3.02711
C          1.13470        0.25161       -1.49673
C         -0.03918        0.98815       -1.96709
C          0.46324        2.09637       -2.78073
C          1.90875        2.00236       -2.85265
C          2.32298        0.84433       -2.08419
C         -2.39021       -2.66313       -0.57404
H         -4.12122       -2.60611        1.46818
H         -2.73774       -1.62881        1.94089
H         -5.20564       -0.66191       -0.68122
H         -5.04362       -2.38159       -0.98777
C         -4.30911        1.52047        1.05238
H         -4.92393        2.72057       -1.17757
H         -4.64107        1.09341       -1.78263
H         -2.06186        1.23636       -2.48073
H         -2.50127       -1.12330       -3.15668
H         -0.84124       -1.52869       -2.69093
H         -1.13208       -0.42713       -4.01242
H         -0.15776        2.79969       -3.33855
H          2.56761        2.66246       -3.42120
Pd        -0.51906       -0.26585        1.15555
H          3.34608        0.50478       -1.90882
C         -2.37557        2.81180        0.15936
H         -3.52765        2.40383       -2.17661
H         -3.79269        1.21083        1.95848
H         -4.79739        2.47177        1.26870
H         -5.09808        0.80369        0.83223
H         -1.61403        2.87725       -0.61908
H         -2.89927        3.76897        0.20025
H         -1.88117        2.66724        1.11878
H         -4.30277       -0.87555        1.65566
H         -4.27881       -1.22525       -2.07178
H         -2.90128       -3.60454       -0.36523
H         -2.15533       -2.65900       -1.63518
H         -1.45942       -2.66452       -0.00975
C          2.82284       -1.20045        0.38488
C          3.27588       -2.17761        1.23601
C          4.60940       -1.88654        1.52301
C          4.91826       -0.74205        0.83061
O          3.83098       -0.31067        0.12730
H          2.69905       -3.00025        1.62505
H          5.26707       -2.44841        2.16596
H          5.87818       -0.24062        0.83278
C          0.76031       -2.71265       -1.00949
C          0.67725       -3.86713       -0.27072
C          0.37136       -4.89936       -1.15873
C          0.28126       -4.32995       -2.40525
O          0.51422       -2.98637       -2.32723
H          0.80445       -3.94806        0.79683
H          0.23266       -5.93969       -0.91379
H          0.05662       -4.85484       -3.32547
Fe         1.31106        2.12121       -0.89329
C          2.98336        2.75731        0.08703
C          2.15730        1.96834        0.97991
C          0.86288        2.60762        1.06717
C          0.88268        3.78646        0.22132
C          2.20440        3.89495       -0.36927
H          4.02390        2.54441       -0.16909
H          2.45438        1.05551        1.49951
H          0.04551        2.27384        1.70831
H          0.07184        4.50946        0.10712
H          2.55076        4.68858       -1.03520
