64
-97.21496827
Cl        -1.62125       -1.44245       -2.49615
Cl         1.52566       -1.13196       -3.02130
P          1.92905       -0.66260        0.25603
C          2.09813       -2.34282        1.01629
C          3.71983       -0.29092       -0.06936
P         -1.27095       -0.13567        0.44759
C          1.28399        0.57272        1.43752
C         -0.13980        0.82810        1.52093
C         -0.33693        1.93995        2.43938
C          0.96807        2.36991        2.90959
C          1.97327        1.51478        2.30461
H         -1.29787        2.34313        2.76419
H          1.15806        3.17347        3.62448
Pd         0.16842       -0.89374       -1.25902
H          3.05291        1.57541        2.45446
C         -5.00897        2.12851       -0.87715
C         -4.04481        2.78549       -0.13953
C         -2.90842        2.11031        0.26512
C         -2.73182        0.78683       -0.07150
C         -3.69544        0.13107       -0.80361
C         -4.83633        0.79993       -1.20933
H         -5.89577        2.65274       -1.19424
H         -4.17654        3.82304        0.12056
H         -2.15180        2.61893        0.83528
H         -3.54694       -0.90373       -1.06578
H         -5.58596        0.28450       -1.78704
C         -2.60518       -3.93054        2.55763
C         -2.38954       -2.77572        3.28462
C         -1.99231       -1.61857        2.63834
C         -1.81231       -1.62842        1.27449
C         -2.03304       -2.77354        0.54554
C         -2.42963       -3.93154        1.18755
H         -2.91418       -4.83244        3.06047
H         -2.52856       -2.77521        4.35325
H         -1.81350       -0.70899        3.18979
H         -1.90457       -2.74881       -0.52442
H         -2.60286       -4.83063        0.61930
C          4.06509       -0.35634       -1.54093
H          3.91429        0.71448        0.32654
C          4.44618       -1.36612        0.76288
H          4.65531       -0.98143        1.77187
C          3.59863       -2.66176        0.87091
H          5.42803       -1.58021        0.31594
C          1.62428       -2.31856        2.45332
H          1.48434       -3.02975        0.41754
H          3.92993       -3.27260        1.72303
H          3.76577       -3.28230       -0.02147
H          2.21310       -1.60986        3.03912
H          0.57962       -2.01027        2.52229
H          1.71816       -3.29982        2.92448
H          5.13017       -0.18359       -1.71014
H          3.82124       -1.33965       -1.94647
H          3.51151        0.38286       -2.12172
Fe         0.85701        2.45049        0.84489
C          2.23069        3.17274       -0.47624
C          1.44712        4.27975        0.04628
C          0.05189        4.02311       -0.26368
C         -0.01957        2.75782       -0.97293
C          1.32714        2.24705       -1.13257
H          3.31917        3.08623       -0.43896
H          1.83932        5.15548        0.56766
H         -0.79091        4.67417       -0.02230
H         -0.92037        2.30648       -1.39387
H          1.60156        1.35214       -1.69404
