171
-217.84723427
P         -1.61189        0.38912       -0.30104
P          1.60248       -0.42246       -0.24790
C         -0.85038        1.33524       -1.62404
C          0.86834       -1.38885       -1.57309
C         -0.07313        0.69690       -2.58363
C          0.55721        1.47649       -3.57250
C          0.37174        2.84917       -3.57288
C         -0.41329        3.46115       -2.61861
C         -1.02043        2.69791       -1.64119
C          1.04734       -2.75040       -1.55107
C          0.45645       -3.54442       -2.51393
C         -0.32836       -2.96449       -3.48815
C         -0.52450       -1.59390       -3.52623
C          0.09788       -0.78175       -2.55884
Cl         1.61202        0.35653        2.86372
Cl        -1.61132       -0.29023        2.93492
C         -1.38967       -1.01063       -4.58812
C          1.40034        0.85001       -4.62736
H         -0.55518        4.52930       -2.63580
H         -1.63439        3.16794       -0.89054
H          1.65116       -3.19492       -0.77639
H          0.60542       -4.61167       -2.49985
H          0.85265        3.44062       -4.33369
H         -0.80452       -3.58009       -4.23265
C         -3.92672       -3.22432       -1.72295
C         -2.93816       -3.40029       -0.76330
C         -2.23187       -2.27912       -0.34561
C         -2.49552       -1.04995       -0.89641
C         -3.46314       -0.89515       -1.85909
C         -4.20765       -1.98766       -2.28933
H         -4.51082       -4.07444       -2.02341
H         -1.47645       -2.35155        0.41750
H         -3.63954        0.08922       -2.25857
C         -4.42232        2.91747        2.21474
C         -4.94684        1.88038        1.45416
C         -4.06657        1.13017        0.68551
C         -2.72588        1.42514        0.66614
C         -2.22719        2.46005        1.41812
C         -3.06584        3.21939        2.22356
H         -5.09356        3.49427        2.82254
H         -4.42059        0.29776        0.10470
H         -1.17039        2.66357        1.39061
C          4.47757       -2.91714        2.22254
C          3.11561       -3.16241        2.34181
C          2.24822       -2.41026        1.55887
C          2.73423       -1.44333        0.71315
C          4.08381       -1.20917        0.61698
C          4.98758       -1.94949        1.36743
H          5.16101       -3.48724        2.82469
H          1.18365       -2.55548        1.62174
H          4.42742       -0.42995       -0.03890
C          3.84472        3.26242       -1.60515
C          2.88752        3.38775       -0.60691
C          2.20447        2.24315       -0.21617
C          2.45801        1.04082       -0.82721
C          3.39803        0.93531       -1.82355
C          4.12072        2.05197       -2.22836
H          4.40811        4.13143       -1.89106
H          1.48166        2.27453        0.58029
H          3.57074       -0.02928       -2.26978
Pd        -0.03117        0.00548        1.37243
C         -2.45387       -5.80812       -1.29859
C         -2.69066       -4.79145       -0.16559
C         -3.92099       -5.20926        0.65869
C         -1.45511       -4.79643        0.75370
H         -1.61603       -5.50029       -1.92283
H         -2.22895       -6.79530       -0.89524
H         -3.32982       -5.90453       -1.93857
H         -3.77499       -6.19120        1.10841
H         -4.10752       -4.49430        1.45989
H         -4.81427       -5.25425        0.03647
H         -1.26408       -5.79752        1.14004
H         -0.56638       -4.47308        0.21231
H         -1.60050       -4.13629        1.60851
C         -6.68794       -2.13901       -2.57882
C         -5.35738       -1.85348       -3.29858
C         -5.17066       -2.86431       -4.44663
C         -5.41834       -0.43672       -3.90214
H         -6.70431       -3.14814       -2.16833
H         -6.83840       -1.44209       -1.75534
H         -7.53111       -2.04111       -3.26239
H         -4.22113       -2.70631       -4.95549
H         -5.18731       -3.89034       -4.08176
H         -5.96641       -2.76428       -5.18465
H         -4.48363       -0.18228       -4.40104
H         -6.21783       -0.36449       -4.63938
H         -5.61369        0.31056       -3.13337
C         -6.83167        1.14848        2.93208
C         -6.45054        1.57480        1.50314
C         -6.82939        0.43796        0.53349
C         -7.24347        2.83369        1.10515
H         -7.89233        0.90671        2.99800
H         -6.26434        0.26835        3.23420
H         -6.62398        1.94184        3.64922
H         -7.90169        0.24501        0.56241
H         -6.56745        0.69809       -0.49191
H         -6.32158       -0.48977        0.79673
H         -8.31506        2.63483        1.10349
H         -7.05980        3.65511        1.79651
H         -6.96056        3.16633        0.10657
C         -2.09414        5.52099        2.13710
C         -2.48107        4.35994        3.06855
C         -1.23526        3.85761        3.82634
C         -3.49569        4.87470        4.10840
H         -1.64168        6.33918        2.69711
H         -1.38271        5.19455        1.38059
H         -2.97164        5.90851        1.61979
H         -1.48306        2.99343        4.44227
H         -0.44053        3.56235        3.14375
H         -0.83575        4.63418        4.47819
H         -3.04593        5.63959        4.74138
H         -4.36485        5.32137        3.62636
H         -3.83558        4.06551        4.75459
C          3.20931       -5.58159        3.00095
C          2.61469       -4.20525        3.35056
C          1.07888       -4.31845        3.33326
C          3.05417       -3.78919        4.76639
H          2.85325       -6.34671        3.69062
H          2.92452       -5.87801        1.99151
H          4.29738       -5.56818        3.05144
H          0.61081       -3.36737        3.58690
H          0.72723       -4.62853        2.35071
H          0.73559       -5.05860        4.05584
H          2.65930       -2.80441        5.01570
H          2.69253       -4.49741        5.51160
H          4.13953       -3.74446        4.84753
C          6.85246       -0.61456        0.26567
C          6.50165       -1.70697        1.29519
C          7.20849       -3.01062        0.88079
C          7.00777       -1.25600        2.67733
H          6.39579        0.33808        0.53365
H          7.93028       -0.46038        0.21624
H          6.51270       -0.89371       -0.73150
H          6.84095       -3.35687       -0.08505
H          8.28498       -2.86141        0.79862
H          7.03721       -3.80346        1.60791
H          8.07883       -1.05570        2.65480
H          6.49980       -0.34511        2.99361
H          6.82649       -2.01917        3.43328
C          3.91217        5.17280        0.81944
C          2.64417        4.74889        0.05774
C          1.46955        4.68381        1.05146
C          2.30858        5.79653       -1.02005
H          4.17010        4.43338        1.57745
H          4.76239        5.27093        0.14525
H          3.76647        6.13122        1.31742
H          1.68598        3.99863        1.87068
H          1.27185        5.66380        1.48548
H          0.56186        4.34983        0.55024
H          2.09780        6.76597       -0.56885
H          3.13357        5.92820       -1.71887
H          1.43186        5.49299       -1.59071
C          5.00077        3.01175       -4.38280
C          5.24428        1.97196       -3.27215
C          5.32236        0.57473       -3.91785
C          6.58851        2.26625       -2.58144
H          5.01511        4.02685       -3.98834
H          5.77006        2.94594       -5.15203
H          4.03485        2.85363       -4.85985
H          5.54872       -0.18979       -3.17505
H          4.38429        0.31350       -4.40596
H          6.10822        0.54098       -4.67230
H          6.59475        3.26223       -2.13982
H          6.77818        1.54741       -1.78516
H          7.41347        2.20910       -3.29134
H         -2.31126       -1.58291       -4.69126
H          1.76558       -0.12950       -4.31580
H         -0.88178       -1.01831       -5.55350
H         -1.66731        0.01894       -4.35865
H          2.26816        1.47002       -4.85084
H          0.83624        0.72263       -5.55219
