59
-75.80913238
Cl         1.64969        0.55353        2.29291
P          1.61162       -0.10426       -0.87198
P         -1.62770       -0.05134       -0.78230
C          0.57824        0.21818       -2.36846
H          0.34186        1.28380       -2.41588
H          1.16616       -0.02680       -3.25857
C         -0.67688       -0.60023       -2.26671
H         -0.43821       -1.66089       -2.15138
H         -1.31601       -0.49754       -3.14917
C          2.62619       -1.62584       -1.20299
H          2.45846       -1.83151       -2.26890
C          2.98275        1.12383       -0.65339
H          3.08521        1.27043        0.42869
C         -3.05461       -1.17252       -0.41551
H         -3.26108       -1.02677        0.65241
C         -2.62672        1.44492       -1.23082
H         -2.04224        2.04576       -1.93832
C          4.07748       -1.15447       -1.00109
H          4.40917       -1.41416        0.01139
H          4.75396       -1.69918       -1.67696
C          4.21110        0.37845       -1.20236
H          4.31127        0.60206       -2.27349
H          5.13141        0.75929       -0.73364
C         -4.20347       -0.59228       -1.27062
H         -4.46555       -1.31420       -2.05688
H         -5.11091       -0.49941       -0.65578
C         -3.84682        0.78647       -1.90939
H         -4.71029        1.46709       -1.86700
H         -3.63638        0.65074       -2.98148
C          2.21431       -2.84387       -0.37703
H          2.79419       -3.71432       -0.71422
H          1.17114       -3.08886       -0.61477
C          2.70855        2.46080       -1.33066
H          3.62584        3.06583       -1.31428
H          2.49969        2.28523       -2.39385
C         -2.74671       -2.64036       -0.68139
H         -3.67691       -3.22171       -0.61369
H         -2.41348       -2.75214       -1.72107
C         -3.01089        2.27913       -0.00987
H         -3.83757        2.94958       -0.28364
H         -3.42573        1.60891        0.75446
C          2.37393       -2.68433        1.12833
H          1.96542       -3.53850        1.67350
H          1.86344       -1.79442        1.49355
H          3.42080       -2.59246        1.42039
C          1.56891        3.22878       -0.68121
H          0.64393        2.65269       -0.70336
H          1.37590        4.18089       -1.18065
H          1.78470        3.44348        0.36717
C         -1.71181       -3.20574        0.27819
H         -0.78509       -2.63377        0.23766
H         -1.46851       -4.24740        0.05699
H         -2.06465       -3.16095        1.31031
C         -1.86758        3.09632        0.57021
H         -1.45152        3.77745       -0.17429
H         -2.18904        3.69967        1.42221
H         -1.05642        2.45860        0.91972
Cl        -1.58787        0.06755        2.37759
Pd         0.03488        0.03180        0.82628
