111
-148.55212981
P         -2.66367        1.80972        0.70593
P          0.18518        0.47212        0.46186
C         -1.71634        1.43747        2.20740
C         -0.44018        0.92925        2.09280
C         -3.70563        3.32386        0.93046
C         -3.03782        4.57632        0.40678
C         -2.25468        1.66866        3.45769
H         -3.26029        2.04482        3.54586
C         -1.50734        1.39984        4.59125
H         -1.92757        1.58037        5.56722
C         -0.22500        0.90000        4.47360
H          0.35659        0.68894        5.35590
C          0.30746        0.65865        3.22046
H          1.29953        0.25072        3.11486
Pd        -1.16092        1.62475       -1.04522
Cl        -2.47045        2.96039       -2.27452
Cl         0.34047        1.18580       -2.65685
C         -5.01116        2.92635        0.21940
C         -3.97781        0.57446        0.27713
H         -2.84694        4.50012       -0.66331
H         -3.66353        5.45764        0.56491
H         -2.07796        4.74854        0.89907
H         -4.92991        3.19547       -0.84298
H         -5.85675        3.51250        0.61100
H         -3.77745        0.26551       -0.75762
C         -5.27938        1.39901        0.35108
C         -3.93917       -0.61585        1.21070
H         -3.88539        3.41659        2.00878
H         -5.76913        1.19839        1.31374
H         -5.99141        1.05956       -0.41614
H         -2.98263       -1.13756        1.14765
H         -4.07084       -0.29921        2.24703
H         -4.73008       -1.33270        0.97810
C         -1.41937       -3.70944       -0.36709
C         -1.08375       -2.85790       -1.45015
C         -0.58188       -1.60187       -1.16155
C         -0.36249       -1.20302        0.12982
C         -0.57729       -2.06403        1.17364
C         -1.06328       -3.34236        0.95625
O         -2.15147       -4.90325       -0.60307
C         -1.31236       -3.24858       -2.91786
H         -0.36927       -0.89970       -1.94766
H         -0.38412       -1.71353        2.17229
C         -1.23607       -4.28472        2.15693
C          4.72116        0.61367        0.08049
C          4.10532       -0.38691        0.87523
C          2.72206       -0.40828        0.94541
C          1.96751        0.56575        0.34476
C          2.56312        1.59760       -0.33129
C          3.94051        1.66714       -0.46031
O          6.11040        0.54002       -0.20596
C          4.90503       -1.45617        1.63660
H          2.21070       -1.20404        1.45952
H          1.92900        2.33714       -0.78844
C          4.55981        2.84419       -1.22982
C         -0.28014       -2.55285       -3.83466
C         -1.14549       -4.76499       -3.12203
C         -2.72100       -2.80667       -3.34352
C         -0.15007       -4.00822        3.22197
C         -2.61682       -4.05302        2.78947
C         -1.08445       -5.75771        1.73605
C         -3.56233       -4.73601       -0.53610
H          0.73519       -2.73613       -3.48427
H         -0.35501       -2.92702       -4.85536
H         -0.43869       -1.47637       -3.87761
H         -1.89413       -5.32480       -2.56706
H         -1.24677       -5.03229       -4.17359
H         -0.16357       -5.09200       -2.78165
H         -2.91005       -3.05630       -4.38719
H         -3.48511       -3.28908       -2.73862
H         -2.83785       -1.72929       -3.22739
H         -0.18791       -4.75400        4.01567
H          0.84458       -4.04196        2.77800
H         -0.28250       -3.03488        3.69196
H         -2.71640       -3.02304        3.13136
H         -3.41453       -4.24284        2.07502
H         -2.76861       -4.70867        3.64647
H         -1.86697       -6.05537        1.04277
H         -0.12506       -5.91956        1.24576
H         -1.14034       -6.41997        2.59963
H         -3.81309       -3.69408       -0.33324
H         -4.01140       -5.03984       -1.48160
H         -3.96970       -5.36745        0.25323
C          6.42416       -0.23244       -1.35822
C          4.15788       -1.87999        2.92229
C          5.08192       -2.69285        0.74279
C          6.27799       -0.91614        2.07666
C          5.94551        3.20882       -0.66719
C          4.67055        2.47231       -2.71645
C          3.67647        4.10639       -1.10503
H          3.90507       -1.01007        3.52794
H          3.23940       -2.41991        2.69724
H          4.77631       -2.54130        3.52878
H          4.11350       -3.10178        0.45534
H          5.62056       -2.44706       -0.16922
H          5.63741       -3.47347        1.26196
H          6.90053       -0.66757        1.22102
H          6.16078       -0.01441        2.67679
H          6.81632       -1.65270        2.67261
H          6.35608        4.08255       -1.17267
H          5.88081        3.43171        0.39726
H          6.65300        2.39335       -0.79457
H          5.09166        3.29417       -3.29482
H          5.30530        1.60119       -2.85888
H          3.68903        2.23726       -3.12767
H          3.46684        4.33151       -0.05970
H          2.72902        3.98849       -1.62881
H          4.17553        4.97194       -1.54018
H          5.51274       -0.61538       -1.81908
H          6.96281        0.38549       -2.07648
H          7.06770       -1.06590       -1.07731
