111
-148.55175639
P         -2.51012        2.27210        0.27514
P         -0.07819        0.24739        0.43923
C         -1.69400        1.97429        1.86271
C         -0.60742        1.12951        1.92135
C         -2.87819        4.07458        0.06573
C         -1.90223        4.74117       -0.87923
C         -2.13226        2.61795        3.00245
H         -2.99130        3.26698        2.95133
C         -1.46821        2.42366        4.20115
H         -1.80879        2.92565        5.09203
C         -0.36419        1.59494        4.25392
H          0.15996        1.45161        5.18451
C          0.06802        0.94713        3.11049
H          0.93958        0.31305        3.13595
Pd        -1.30495        1.12732       -1.32623
Cl        -2.49586        2.24689       -2.86250
Cl        -0.06466       -0.05160       -2.77013
C         -4.34338        4.06858       -0.40638
C         -4.22067        1.57430        0.16402
H         -1.94581        4.28623       -1.86926
H         -2.12281        5.80467       -0.99633
H         -0.87500        4.64489       -0.52002
H         -4.35924        4.05198       -1.50490
H         -4.84470        5.00464       -0.11660
H         -4.27243        1.05394       -0.80183
C         -5.11128        2.83112        0.14159
C         -4.49637        0.61812        1.30446
H         -2.80559        4.52137        1.06558
H         -5.45696        3.03819        1.16363
H         -6.02306        2.64378       -0.44557
H         -3.78949       -0.21546        1.30244
H         -4.40057        1.12486        2.26643
H         -5.50681        0.20679        1.24561
C         -0.96176       -4.22180        0.77872
C         -0.15749       -3.58433        1.75712
C          0.05492       -2.22025        1.64498
C         -0.41637       -1.51261        0.56916
C         -1.08337       -2.15396       -0.44240
C         -1.35262       -3.51020       -0.38290
O         -1.40003       -5.55870        0.97366
C          0.47654       -4.34413        2.93321
H          0.60507       -1.69274        2.40285
H         -1.37143       -1.58186       -1.30508
C         -2.07565       -4.18367       -1.55993
C          4.30767        1.07871       -0.44397
C          3.35721        2.12962       -0.51795
C          2.03659        1.84414       -0.21084
C          1.64204        0.56397        0.07633
C          2.53560       -0.47379        0.03895
C          3.87156       -0.25700       -0.25114
O          5.69578        1.36727       -0.52908
C          3.73896        3.56474       -0.91291
H          1.29216        2.62196       -0.19145
H          2.17238       -1.46538        0.24292
C          4.82252       -1.46154       -0.32853
C         -0.47677       -4.30568        4.13684
C          0.78981       -5.80196        2.54962
C          1.81774       -3.69206        3.34138
C         -1.76855       -3.44955       -2.88551
C         -1.60878       -5.64019       -1.73416
C         -3.59165       -4.13870       -1.31617
C         -2.62269       -5.66781        1.69139
H         -1.42977       -4.77278        3.89966
H         -0.04827       -4.82902        4.99123
H         -0.67741       -3.27729        4.43653
H          1.30087       -6.31973        3.36094
H         -0.11723       -6.35752        2.32540
H          1.42949       -5.83742        1.66834
H          2.47683       -3.59053        2.47962
H          1.67178       -2.70607        3.77979
H          2.33234       -4.29928        4.08575
H         -0.69387       -3.34301       -3.03052
H         -2.16781       -4.00215       -3.73558
H         -2.21768       -2.45781       -2.91120
H         -0.52779       -5.68356       -1.86292
H         -1.86629       -6.24513       -0.86819
H         -2.07337       -6.09912       -2.60650
H         -4.13387       -4.59732       -2.14265
H         -3.85975       -4.66694       -0.40436
H         -3.93523       -3.10924       -1.21642
H         -2.45928       -6.22889        2.61127
H         -3.01173       -4.67796        1.93338
H         -3.35228       -6.20788        1.08811
C          6.30681        1.64876        0.72367
C          4.91502        3.57124       -1.90638
C          2.55429        4.26854       -1.61403
C          4.10608        4.36035        0.34859
C          4.06532       -2.72451       -0.80042
C          5.95227       -1.21036       -1.34351
C          5.41104       -1.73480        1.06384
H          5.81656        3.16265       -1.45671
H          4.67814        2.97094       -2.78417
H          5.14224        4.58388       -2.23859
H          1.73232        4.45624       -0.92508
H          2.86037        5.23390       -2.01641
H          2.17886        3.66507       -2.44014
H          4.36975        5.38784        0.09916
H          3.26831        4.38613        1.04508
H          4.95171        3.91239        0.86494
H          3.52454       -2.52847       -1.72593
H          4.75841       -3.54495       -0.98486
H          3.35240       -3.07140       -0.05389
H          5.54059       -0.97188       -2.32362
H          6.58396       -0.38046       -1.03663
H          6.58899       -2.08861       -1.44695
H          5.97644       -0.88003        1.42732
H          6.07833       -2.59606        1.04362
H          4.61871       -1.93826        1.78389
H          5.57234        1.58815        1.52778
H          7.10803        0.93343        0.90846
H          6.74117        2.64809        0.70223
