58
-89.86785394
P          1.59022        0.02990        0.78887
C          3.05062        1.05398        0.59398
C          2.93318        2.42169        0.49895
C          4.06726        3.19920        0.34687
C          5.31062        2.60060        0.29295
C          5.42350        1.22768        0.38938
C          4.28754        0.45263        0.54040
H          4.35795       -0.62107        0.61199
H          1.95619        2.87660        0.52922
C          1.92516       -1.66657        0.30018
C          2.12814       -2.65437        1.23716
C          2.37441       -3.95123        0.82357
C          2.42093       -4.24862       -0.52435
C          2.22986       -3.25215       -1.46069
C          1.98533       -1.95741       -1.04326
H          1.84730       -1.16094       -1.75668
H          2.09545       -2.41155        2.28666
C          1.00890        0.15092        2.53456
C          0.04261        1.31344        2.73742
C         -1.41799        0.96474        2.48803
P         -1.78626        0.29873        0.80600
C         -1.57779       -1.48687        0.67348
C         -1.56932       -2.02899       -0.59204
C         -1.37114       -3.38663       -0.76309
C         -1.18553       -4.19557        0.33962
C         -1.20407       -3.65072        1.60812
C         -1.40254       -2.29256        1.77510
H         -1.43110       -1.86704        2.76384
H         -1.70772       -1.37904       -1.44222
C         -3.44750        0.78282        0.33036
C         -4.40405       -0.17596        0.08523
C         -5.68133        0.20543       -0.28407
C         -5.99025        1.54588       -0.40606
C         -5.02678        2.50426       -0.16023
C         -3.75025        2.11959        0.21008
H         -2.98349        2.85596        0.39343
H         -4.14716       -1.21845        0.18090
Pd        -0.04925        0.79562       -0.65617
Cl         1.58219        1.12148       -2.16850
Cl        -1.68333        1.40382       -2.07383
H         -1.77237        0.22908        3.21141
H         -2.05229        1.84559        2.61500
H          0.14584        1.70876        3.76006
H          0.34018        2.14252        2.08116
H          0.54880       -0.79294        2.82690
H          1.91270        0.26278        3.13925
H          3.97878        4.27014        0.26603
H          6.39320        0.75977        0.34428
H          2.52720       -4.72899        1.55365
H          2.27105       -3.48096       -2.51286
H         -1.35400       -3.80868       -1.75438
H         -1.06087       -4.28338        2.46870
H         -6.43217       -0.54270       -0.47854
H         -5.26606        3.55014       -0.26085
H          6.19428        3.20587        0.17241
H          2.60960       -5.25987       -0.84598
H         -1.02398       -5.25329        0.21009
H         -6.98427        1.84464       -0.69655
