111
-148.55610463
P         -1.61640        2.70647        0.98323
P         -0.47803       -0.20441        0.50431
C         -1.23354        1.64083        2.40249
C         -0.80943        0.34585        2.18988
C         -0.47845        4.16191        0.92007
C          0.43763        4.07549       -0.28249
C         -1.33900        2.12649        3.69012
H         -1.63413        3.15073        3.84943
C         -1.04299        1.30372        4.76327
H         -1.12896        1.68135        5.76906
C         -0.63198        0.00220        4.54727
H         -0.39642       -0.63625        5.38278
C         -0.50459       -0.47520        3.25524
H         -0.15141       -1.47685        3.06747
Pd        -1.65140        1.27436       -0.82800
Cl        -2.66683        2.91155       -1.97650
Cl        -1.58216       -0.21455       -2.50781
C         -1.44188        5.36530        0.89754
C         -3.24776        3.57161        1.12737
H         -0.14276        4.03136       -1.20628
H          1.09817        4.94339       -0.34540
H          1.06114        3.17988       -0.24686
H         -1.56704        5.69505       -0.14297
H         -0.99702        6.22216        1.42572
H         -3.68331        3.55392        0.11967
C         -2.83398        5.00835        1.49322
C         -4.18179        2.90118        2.11244
H          0.09414        4.14174        1.85642
H         -2.80239        5.10172        2.58744
H         -3.60040        5.72400        1.15828
H         -5.14723        3.41045        2.15511
H         -4.36050        1.85832        1.84067
H         -3.76451        2.90945        3.11965
C         -0.64923       -4.72157       -0.02822
C         -1.77104       -3.93342       -0.39314
C         -1.70997       -2.56541       -0.18270
C         -0.56702       -1.97626        0.28970
C          0.55656       -2.71964        0.54173
C          0.56166       -4.09227        0.35769
O         -0.74661       -6.13861       -0.02097
C         -3.04115       -4.54039       -1.01020
H         -2.55430       -1.93436       -0.40015
H          1.43974       -2.20518        0.88064
C          1.86606       -4.87228        0.58520
C          3.63631        1.31689       -0.72267
C          3.20205        1.47172        0.61889
C          1.96216        0.96584        0.96972
C          1.14490        0.39137        0.03222
C          1.51295        0.34035       -1.28573
C          2.73707        0.82988       -1.70540
O          4.97847        1.62102       -1.07363
C          4.06055        2.16206        1.68978
H          1.61536        1.01642        1.98650
H          0.80635       -0.06520       -1.98879
C          3.06696        0.82317       -3.20578
C         -4.02204       -4.91926        0.10929
C         -3.72967       -3.52248       -1.94840
C         -2.70537       -5.77781       -1.86261
C          1.94947       -6.09423       -0.34744
C          3.09362       -3.98434        0.27496
C          1.94209       -5.31985        2.05255
C         -1.18963       -6.68265        1.21576
H         -4.93882       -5.34153       -0.30142
H         -3.58656       -5.65325        0.78307
H         -4.28876       -4.04362        0.70059
H         -3.02319       -3.12968       -2.67922
H         -4.54966       -3.99018       -2.49275
H         -4.15064       -2.68439       -1.39522
H         -1.97526       -5.52686       -2.63135
H         -2.28831       -6.57699       -1.25487
H         -3.59575       -6.16850       -2.35457
H          2.90198       -6.61094       -0.23250
H          1.15930       -6.81006       -0.13468
H          1.85224       -5.78903       -1.38879
H          3.20392       -3.17979        1.00061
H          4.01229       -4.56975        0.30555
H          3.01165       -3.54205       -0.71770
H          2.86541       -5.86488        2.24723
H          1.91070       -4.45897        2.72004
H          1.10836       -5.96864        2.31015
H         -1.37204       -5.88639        1.93854
H         -2.10770       -7.24843        1.05827
H         -0.43362       -7.36307        1.60724
C          5.86676        0.51532       -0.97243
C          4.96390        1.12018        2.36609
C          4.91376        3.28509        1.07265
C          3.16822        2.81665        2.76904
C          1.77912        0.98936       -4.04554
C          3.99561        1.99402       -3.57509
C          3.72566       -0.51464       -3.57425
H          4.36647        0.33492        2.82883
H          5.62905        0.64924        1.64629
H          5.57731        1.57930        3.14095
H          5.63070        2.89029        0.35689
H          4.28233        4.00411        0.55162
H          5.47392        3.81871        1.84006
H          2.63771        2.07266        3.36146
H          3.76854        3.40697        3.46090
H          2.43456        3.48087        2.31384
H          2.01876        1.11922       -5.10054
H          1.13211        0.11678       -3.97065
H          1.21413        1.86272       -3.72062
H          4.17579        2.02778       -4.64926
H          3.55300        2.94337       -3.27519
H          4.96068        1.90595       -3.08247
H          3.06069       -1.34703       -3.34478
H          4.64815       -0.66595       -3.01865
H          3.96193       -0.55396       -4.63726
H          6.67563        0.75944       -0.28394
H          5.33656       -0.36755       -0.61286
H          6.30272        0.30492       -1.94883
