59
-75.80093292
Cl         1.37225        0.72359        2.39240
P          1.55607       -0.08437       -0.75460
P         -1.66962       -0.15138       -0.86002
C          0.62952        0.38126       -2.28620
H          0.42889        1.45367       -2.25044
H          1.28285        0.20518       -3.14610
C         -0.65207       -0.40078       -2.38319
H         -0.44315       -1.46774       -2.48354
H         -1.25066       -0.10958       -3.25164
C          2.30502       -1.75782       -1.02894
H          1.68792       -2.23363       -1.80205
C          3.14349        0.86073       -0.62217
H          3.49676        0.74019        0.40871
C         -2.85914       -1.53097       -0.50283
H         -2.82259       -1.67885        0.58369
C         -2.87797        1.24245       -1.08526
H         -2.84791        1.50074       -2.15072
C          3.71730       -1.45110       -1.58359
H          4.46147       -1.99074       -0.98336
H          3.82698       -1.86449       -2.59735
C          4.04710        0.07245       -1.58645
H          3.90687        0.48025       -2.59806
H          5.10767        0.24677       -1.34734
C         -4.21568       -0.93294       -0.90978
H         -4.40957       -1.17847       -1.96318
H         -5.02977       -1.40777       -0.34090
C         -4.23260        0.60606       -0.72369
H         -4.46276        0.84130        0.32461
H         -5.04155        1.06473       -1.31232
C          2.30329       -2.60304        0.24538
H          2.68505       -3.60580        0.00731
H          1.26723       -2.75816        0.57381
C          3.00276        2.34460       -0.94512
H          3.99688        2.76296       -1.15591
H          2.44138        2.45614       -1.88110
C         -2.52647       -2.83792       -1.21371
H         -3.37915       -3.52450       -1.11782
H         -2.43488       -2.64431       -2.29018
C         -2.55032        2.46921       -0.23968
H         -3.41528        3.14711       -0.24440
H         -2.43579        2.15661        0.80621
C          3.10421       -2.01194        1.39607
H          3.06601       -2.64402        2.28628
H          2.72111       -1.03292        1.68161
H          4.15588       -1.88182        1.13781
C          2.34185        3.12911        0.17816
H          2.17421        4.17452       -0.09039
H          2.95487        3.11517        1.08138
H          1.37931        2.69691        0.45089
C         -1.26860       -3.49954       -0.67775
H         -0.40921       -2.83727       -0.77223
H         -1.03127       -4.42529       -1.20687
H         -1.37002       -3.74151        0.38200
C         -1.31241        3.21237       -0.70883
H         -1.09894        4.08755       -0.09085
H         -0.43618        2.56748       -0.67506
H         -1.42134        3.55436       -1.73980
Cl        -1.83855        0.19141        2.27578
Pd        -0.11771        0.10518        0.83448
