64
-97.20764529
Cl        -1.54201       -1.69345       -2.46504
Cl         1.59801       -1.60186       -2.83424
P          2.01446       -0.60065        0.19988
C          2.36389       -2.22812        1.00529
C          3.75361       -0.10852       -0.24020
P         -1.27053       -0.14564        0.42699
C          1.31376        0.60918        1.37877
C         -0.11766        0.82885        1.46907
C         -0.34640        1.92858        2.39587
C          0.94724        2.39624        2.86224
C          1.97353        1.58213        2.23490
H         -1.31453        2.34631        2.67618
H          1.11820        3.21117        3.56928
Pd         0.18899       -1.08195       -1.16878
H          3.05163        1.67779        2.37920
C         -4.77612        2.43301       -0.91882
C         -4.43520        2.36729        0.41771
C         -3.38066        1.56815        0.82199
C         -2.66985        0.84672       -0.11020
C         -3.02682        0.88972       -1.43880
C         -4.07624        1.69009       -1.84846
H         -5.59640        3.05654       -1.23527
H         -4.98970        2.93638        1.14576
H         -3.11902        1.49168        1.86456
H         -2.49697        0.27518       -2.14656
H         -4.35165        1.72661       -2.88974
C         -2.84981       -3.78215        2.64212
C         -2.43806       -2.66928        3.34977
C         -1.96086       -1.56053        2.67364
C         -1.89756       -1.57667        1.29931
C         -2.31025       -2.68023        0.59049
C         -2.78790       -3.78984        1.26218
H         -3.22143       -4.64641        3.16813
H         -2.48717       -2.66387        4.42627
H         -1.63050       -0.68467        3.20919
H         -2.24989       -2.66410       -0.48575
H         -3.10975       -4.65720        0.70960
C          3.93598        0.15822       -1.71896
H          3.95907        0.79745        0.34408
C          4.61285       -1.28205        0.27080
H          5.56760       -0.91152        0.67279
C          3.86441       -2.13794        1.32571
H          4.88375       -1.91749       -0.58316
C          1.48354       -2.44922        2.21576
H          2.18220       -2.99639        0.24181
H          3.98698       -1.68761        2.32053
H          4.30179       -3.14529        1.40075
H          1.60188       -1.63616        2.93450
H          0.42947       -2.49013        1.93662
H          1.73243       -3.38281        2.72525
H          3.27762        0.95084       -2.07517
H          4.96388        0.44864       -1.94663
H          3.71254       -0.73667       -2.30067
Fe         0.80259        2.46046        0.81559
C          2.03863        3.11121       -0.67240
C          1.41631        4.23613        0.00476
C         -0.02269        4.10828       -0.14317
C         -0.28463        2.90060       -0.90240
C          0.98476        2.28676       -1.23516
H          3.11345        2.94146       -0.76731
H          1.93977        5.04836        0.51459
H         -0.77454        4.80076        0.24153
H         -1.26823        2.53998       -1.20213
H          1.11787        1.38816       -1.84024
