59
-75.79800500
Cl         1.39877        0.58947        2.36530
P          1.46852        0.03515       -0.81308
P         -1.74606       -0.20430       -0.78991
C          0.44537        0.35186       -2.32204
H          0.13375        1.39876       -2.32236
H          1.07165        0.19712       -3.20624
C         -0.75328       -0.55346       -2.30533
H         -0.44497       -1.60176       -2.28318
H         -1.39415       -0.41536       -3.18164
C          2.58401       -1.40455       -1.15668
H          2.30052       -1.74927       -2.16077
C          2.73139        1.35028       -0.48018
H          2.46335        1.81572        0.47649
C         -3.10076       -1.43208       -0.50195
H         -3.19305       -1.53027        0.58675
C         -2.76571        1.32862       -1.03313
H         -2.58174        1.65951       -2.06234
C          3.98778       -0.76819       -1.18487
H          4.73033       -1.49153       -0.81832
H          4.27953       -0.55384       -2.22375
C          4.04245        0.54725       -0.35967
H          4.89239        1.16467       -0.68192
H          4.23774        0.31147        0.69648
C         -4.33087       -0.70842       -1.07302
H         -4.41194       -0.93858       -2.14464
H         -5.25281       -1.09881       -0.61491
C         -4.21603        0.82701       -0.87488
H         -4.56878        1.08667        0.13271
H         -4.88464        1.36244       -1.56570
C          2.42389       -2.55255       -0.16071
H          2.98820       -3.42270       -0.52480
H          1.37431       -2.87244       -0.15670
C          2.74617        2.40913       -1.57817
H          3.03841        1.93308       -2.52345
H          1.72331        2.77327       -1.74106
C         -2.82104       -2.79493       -1.12216
H         -3.73739       -3.40071       -1.09058
H         -2.60047       -2.66229       -2.18918
C         -2.40480        2.43888       -0.04815
H         -3.20256        3.19475       -0.05976
H         -2.41704        2.02369        0.96829
C          2.86321       -2.22626        1.25732
H          3.92954       -2.00125        1.30723
H          2.67558       -3.05453        1.94452
H          2.33390       -1.35761        1.64554
C          3.65873        3.58839       -1.27006
H          3.62305        4.34808       -2.05435
H          4.69964        3.27869       -1.16714
H          3.37328        4.07117       -0.33347
C         -1.68671       -3.53027       -0.42690
H         -0.77273       -2.93685       -0.43520
H         -1.46418       -4.48915       -0.90040
H         -1.92659       -3.72640        0.61992
C         -1.06754        3.10582       -0.33243
H         -1.04608        3.53734       -1.33488
H         -0.85308        3.90959        0.37554
H         -0.24363        2.39555       -0.26946
Cl        -1.78436       -0.32807        2.35838
Pd        -0.13850       -0.04618        0.86040
