59
-75.81263980
Cl         1.59721        0.64340        2.29208
P          1.60998       -0.04982       -0.85802
P         -1.64407       -0.05422       -0.79846
C          0.58273        0.39888       -2.32313
H          0.32851        1.46019       -2.26753
H          1.18153        0.24889       -3.22685
C         -0.65720       -0.44917       -2.30932
H         -0.39772       -1.51074       -2.28568
H         -1.28762       -0.28206       -3.18847
C          2.49942       -1.63105       -1.25732
H          2.27214       -1.80871       -2.31716
C          3.07519        1.06148       -0.62754
H          3.22019        1.14571        0.45642
C         -2.97531       -1.30666       -0.50228
H         -3.34157       -1.12273        0.51543
C         -2.76159        1.37231       -1.20557
H         -2.28052        1.92736       -2.02016
C          3.98915       -1.27217       -1.10854
H          4.34862       -1.60016       -0.12591
H          4.59195       -1.83266       -1.83896
C          4.22576        0.25440       -1.25300
H          4.30328        0.51613       -2.31739
H          5.18750        0.54890       -0.80567
C         -4.03009       -0.86453       -1.52974
H         -3.78623       -1.33013       -2.49585
H         -5.02160       -1.25887       -1.25732
C         -4.06581        0.68487       -1.68581
H         -4.90675        1.08635       -1.10350
H         -4.28388        0.96044       -2.72827
C          2.02923       -2.82050       -0.42244
H          2.51823       -3.73255       -0.79221
H          0.95917       -2.97473       -0.61257
C          2.88722        2.44692       -1.23336
H          3.85060        2.97564       -1.22420
H          2.62840        2.33942       -2.29465
C         -2.52105       -2.75645       -0.63351
H         -3.40612       -3.40213       -0.71897
H         -1.98464       -2.88116       -1.58209
C         -2.99329        2.28975       -0.00660
H         -3.84589        2.94827       -0.22487
H         -3.31244        1.67661        0.84667
C          2.27300       -2.68714        1.07507
H          3.33603       -2.70730        1.31868
H          1.80306       -3.49714        1.63785
H          1.87714       -1.74975        1.46421
C          1.83670        3.27130       -0.50856
H          1.70990        4.26126       -0.95256
H          2.09937        3.41092        0.54179
H          0.86731        2.77486       -0.53042
C         -1.66244       -3.21292        0.53551
H         -0.78742       -2.57512        0.65701
H         -1.30986       -4.23949        0.41275
H         -2.21757       -3.16547        1.47431
C         -1.78804        3.13434        0.37284
H         -2.01281        3.82191        1.19143
H         -0.95418        2.51461        0.69903
H         -1.44219        3.73217       -0.47247
Cl        -1.58348        0.05692        2.40144
Pd         0.00694        0.06392        0.81695
