111
-148.55623831
P         -1.48227        2.71945        0.96398
P         -0.56427       -0.25748        0.42439
C         -1.26959        1.57643        2.35483
C         -0.95347        0.25552        2.11499
C         -0.24592        4.09367        1.02869
C          0.71732        4.00623       -0.13600
C         -1.41201        2.02875        3.65100
H         -1.62447        3.07014        3.83028
C         -1.26252        1.14837        4.70827
H         -1.37705        1.49979        5.72071
C         -0.96439       -0.17870        4.46676
H         -0.84556       -0.86431        5.28960
C         -0.80060       -0.62354        3.16752
H         -0.54189       -1.65056        2.96910
Pd        -1.58632        1.35940       -0.89827
Cl        -2.26414        3.16743       -2.04301
Cl        -1.61276       -0.04508       -2.64513
C         -1.12168        5.36275        1.02792
C         -3.05544        3.69345        1.05904
H          1.43251        4.83199       -0.12692
H          1.28205        3.07249       -0.11767
H          0.17859        4.04255       -1.08494
H         -1.16445        5.75843        0.00391
H         -0.64932        6.15442        1.62886
H         -3.42637        3.75826        0.02755
C         -2.56671        5.07581        1.52667
C         -4.09450        3.04472        1.94895
H          0.28016        3.98606        1.98614
H         -2.59259        5.10996        2.62446
H         -3.26182        5.86063        1.19110
H         -5.02205        3.62149        1.96325
H         -4.32964        2.03330        1.60974
H         -3.74127        2.97038        2.97775
C         -0.74029       -4.77874       -0.11057
C         -1.63342       -3.95462       -0.84225
C         -1.57931       -2.58584       -0.63831
C         -0.63739       -2.03021        0.18704
C          0.30759       -2.81303        0.79861
C          0.30269       -4.19000        0.64868
O         -0.90486       -6.18959       -0.11633
C         -2.64982       -4.52221       -1.84622
H         -2.26021       -1.92617       -1.14610
H          1.06005       -2.32714        1.39609
C          1.40229       -5.02212        1.32698
C          3.60877        1.29591       -0.54138
C          3.16537        1.25493        0.80528
C          1.90983        0.73471        1.06831
C          1.09190        0.31903        0.05118
C          1.47797        0.44307       -1.25716
C          2.71147        0.97339       -1.59152
O          4.95630        1.63734       -0.83241
C          4.03021        1.75740        1.97123
H          1.54836        0.65347        2.07810
H          0.77474        0.15217       -2.01818
C          3.04120        1.21068       -3.07355
C         -2.92035       -3.50623       -2.97989
C         -2.11482       -5.80280       -2.51288
C         -3.97283       -4.81470       -1.12295
C          1.73955       -6.27418        0.49717
C          2.70692       -4.20305        1.45812
C          0.93646       -5.42875        2.73324
C         -1.78018       -6.67586        0.89326
H         -3.53292       -3.95290       -3.76261
H         -3.45475       -2.62938       -2.61783
H         -1.98701       -3.17402       -3.43360
H         -2.80559       -6.16729       -3.27277
H         -1.15400       -5.61360       -2.99040
H         -1.97482       -6.59971       -1.78683
H         -4.37608       -3.90657       -0.67551
H         -4.71671       -5.20944       -1.81453
H         -3.83461       -5.54235       -0.32686
H          2.02806       -5.99657       -0.51607
H          2.56284       -6.83076        0.94427
H          0.88744       -6.94602        0.42913
H          3.00325       -3.78833        0.49491
H          2.59900       -3.38312        2.16678
H          3.52261       -4.83000        1.81761
H          1.70178       -6.01182        3.24489
H          0.72226       -4.54776        3.33794
H          0.03042       -6.02830        2.69005
H         -1.24685       -7.38223        1.52922
H         -2.15645       -5.85159        1.50045
H         -2.61705       -7.19923        0.43125
C          5.82917        0.51911       -0.92800
C          3.14658        2.22158        3.15165
C          4.93773        0.61799        2.45823
C          4.87942        2.96754        1.54207
C          1.75542        1.53680       -3.86910
C          3.98799        2.41221       -3.24611
C          3.67700       -0.05692       -3.66305
H          2.40582        2.94819        2.81963
H          2.62492        1.38688        3.61777
H          3.75196        2.69229        3.92591
H          5.60087        0.27750        1.66680
H          5.55352        0.94056        3.29740
H          4.34325       -0.23566        2.78325
H          5.44812        3.36510        2.38228
H          5.58852        2.69723        0.76328
H          4.24440        3.76378        1.15486
H          1.20646        2.35388       -3.40159
H          1.99633        1.83619       -4.88870
H          1.09249        0.67581       -3.93799
H          3.55977        3.30550       -2.79243
H          4.95141        2.22967       -2.77698
H          4.16897        2.62050       -4.30029
H          2.99718       -0.90421       -3.57624
H          4.59592       -0.31592       -3.14239
H          3.91386        0.07935       -4.71791
H          5.29205       -0.40339       -0.70378
H          6.24518        0.46256       -1.93363
H          6.65343        0.64041       -0.22525
