111
-148.55411583
P         -1.39633        2.61593        1.14990
P         -0.29300       -0.28296        0.55955
C         -0.95322        1.52280        2.52968
C         -0.53443        0.23515        2.26926
C         -0.26014        4.07170        1.06752
C          0.60147        4.00770       -0.17545
C         -1.00724        1.97757        3.83162
H         -1.29986        2.99619        4.02729
C         -0.66453        1.13063        4.87158
H         -0.71032        1.48377        5.88884
C         -0.25858       -0.16373        4.60778
H          0.01273       -0.82094        5.41750
C         -0.18382       -0.61037        3.30055
H          0.16076       -1.60717        3.07372
Pd        -1.53322        1.21542       -0.67954
Cl        -2.43244        2.94127       -1.79794
Cl        -1.59239       -0.23594       -2.39144
C         -1.22175        5.27614        1.11029
C         -3.01975        3.47834        1.37133
H          1.26210        4.87474       -0.24902
H          1.22040        3.10833       -0.18491
H         -0.01870        3.98488       -1.07373
H         -1.38629        5.63009        0.08331
H         -0.75527        6.12012        1.64053
H         -3.49104        3.48021        0.37945
C         -2.59079        4.90716        1.75070
C         -3.91639        2.78775        2.37698
H          0.35394        4.03166        1.97682
H         -2.51788        4.97796        2.84465
H         -3.36861        5.62969        1.45971
H         -4.87950        3.29546        2.46598
H         -4.10522        1.75034        2.09137
H         -3.46137        2.77621        3.36775
C         -1.01375       -4.72833       -0.10792
C         -2.07475       -3.89435        0.32843
C         -1.80815       -2.55209        0.54669
C         -0.57107       -2.02637        0.28013
C          0.42589       -2.80564       -0.24623
C          0.22530       -4.15414       -0.49044
O         -1.18168       -6.13862       -0.12936
C         -3.49316       -4.42918        0.58065
H         -2.56733       -1.89328        0.93294
H          1.37172       -2.34211       -0.46553
C          1.34814       -4.97088       -1.14942
C          3.64647        1.44976       -0.92266
C          3.38677        1.38530        0.47055
C          2.18823        0.83310        0.89002
C          1.30567        0.29480       -0.00888
C          1.59255        0.27321       -1.34791
C          2.77382        0.80435       -1.83589
O          4.75370        2.19756       -1.40496
C          4.35021        1.95584        1.52248
H          1.91288        0.84396        1.92991
H          0.84360       -0.11611       -2.01566
C          3.04913        0.73354       -3.34539
C         -3.60995       -4.89602        2.03933
C         -4.54460       -3.32448        0.32928
C         -3.82543       -5.58906       -0.37586
C          0.77446       -6.11756       -2.00184
C          2.18068       -4.08034       -2.09942
C          2.27571       -5.53231       -0.06153
C         -0.81117       -6.78475        1.08196
H         -4.61187       -5.26859        2.25100
H         -2.90273       -5.69311        2.25568
H         -3.40319       -4.07430        2.72463
H         -4.48413       -2.53301        1.07473
H         -4.41027       -2.87936       -0.65630
H         -5.55391       -3.73256        0.37764
H         -4.85407       -5.92369       -0.24410
H         -3.69939       -5.27880       -1.41260
H         -3.17696       -6.44433       -0.20261
H          1.56728       -6.65282       -2.52375
H          0.23951       -6.83876       -1.38908
H          0.07898       -5.73082       -2.74597
H          2.89430       -4.67863       -2.66541
H          1.53420       -3.56803       -2.81145
H          2.75336       -3.33214       -1.55346
H          2.71387       -4.72528        0.52524
H          1.73351       -6.18142        0.62201
H          3.08844       -6.10984       -0.50130
H         -0.00805       -7.49523        0.88723
H         -0.47809       -6.05196        1.81800
H         -1.66437       -7.33570        1.47741
C          4.45886        3.56182       -1.68064
C          4.22529        1.18042        2.85401
C          5.81406        1.82622        1.06437
C          4.00222        3.42979        1.78193
C          4.55934        0.66650       -3.63551
C          2.42013       -0.54037       -3.95395
C          2.42741        1.96090       -4.02938
H          4.99472        1.49549        3.55851
H          3.26329        1.35415        3.33404
H          4.33944        0.10911        2.69072
H          6.05457        0.78795        0.83832
H          6.00431        2.41428        0.17021
H          6.49894        2.17263        1.83795
H          4.66805        3.86279        2.52794
H          4.08533        4.02134        0.87346
H          2.97980        3.52541        2.14666
H          4.74853        0.55359       -4.70271
H          5.06881        1.56793       -3.30533
H          5.01142       -0.17987       -3.11946
H          1.33213       -0.50881       -3.92590
H          2.70950       -0.65358       -4.99842
H          2.75268       -1.42788       -3.41728
H          1.35264        1.99670       -3.85200
H          2.59115        1.93277       -5.10624
H          2.85573        2.88479       -3.64822
H          3.41116        3.77610       -1.46824
H          5.09205        4.20430       -1.06906
H          4.66746        3.77763       -2.72836
