45
-71.81528414
C          2.29730        1.28022        2.44891
P          1.52041        0.88342        0.84744
P         -1.02701        0.15303       -0.91461
C         -0.38758       -0.35238       -2.54711
Cl         1.47663       -1.87844        2.29382
H          2.99376        2.10563        2.33272
H         -0.53452       -1.41911       -2.69017
Cl        -1.25536       -2.69346        0.38786
C          0.45627        2.20140        0.22066
C         -0.63115        1.87876       -0.56292
C         -1.42973        2.87367       -1.08771
C         -1.13452        4.20032       -0.82741
C         -0.04108        4.52439       -0.04780
C          0.75882        3.52331        0.47483
H         -2.27919        2.60497       -1.69529
H         -1.75719        4.97979       -1.23468
H          0.19167        5.55750        0.15149
H          1.62159        3.76564        1.07381
Pd         0.13674       -0.97197        0.73783
H          0.67449       -0.13381       -2.61077
H          2.83718        0.41373        2.81992
H         -0.90655        0.18887       -3.33301
C         -5.47054       -0.60745       -0.30503
C         -4.75256        0.13069        0.61485
C         -3.40304        0.35891        0.41175
C         -2.78405       -0.14760       -0.70847
C         -3.49440       -0.88818       -1.62555
C         -4.84357       -1.11812       -1.42448
H         -6.52123       -0.78849       -0.14718
H         -5.24008        0.52583        1.49088
H         -2.82628        0.92938        1.12315
H         -2.99298       -1.29038       -2.49069
H         -5.40305       -1.69908       -2.13918
C          4.50359       -0.35821       -2.34706
C          3.79636        0.81987       -2.48982
C          2.89803        1.20712       -1.51195
C          2.71975        0.41668       -0.40011
C          3.41319       -0.76267       -0.25811
C          4.31269       -1.15236       -1.23312
H          5.20310       -0.66078       -3.10913
H          3.94195        1.43588       -3.36195
H          2.33179        2.11900       -1.61212
H          3.22136       -1.38220        0.60345
H          4.85674       -2.07636       -1.12634
H          1.53421        1.55575        3.17119
