111
-148.55134764
P         -2.73301        1.87072       -0.33296
P          0.12957        0.63313        0.20717
C         -1.83909        2.28341        1.19479
C         -0.57083        1.78505        1.39911
C         -3.84876        3.27054       -0.81668
C         -3.60349        3.72741       -2.23746
C         -2.42250        3.08370        2.15710
H         -3.42232        3.45631        2.00728
C         -1.72825        3.38883        3.31526
H         -2.18407        4.01415        4.06550
C         -0.45454        2.89128        3.51278
H          0.08438        3.12611        4.41589
C          0.12431        2.08122        2.55277
H          1.10981        1.66727        2.69835
Pd        -1.13970        0.89618       -1.71062
Cl        -2.62151        1.02720       -3.38471
Cl         0.48532       -0.09291       -2.90413
C         -5.25781        2.68628       -0.58187
C         -3.97492        0.51685       -0.10717
H         -4.22543        4.58766       -2.49591
H         -2.55836        4.00548       -2.39135
H         -3.84048        2.93044       -2.94304
H         -5.96124        3.12399       -1.30512
H         -5.62812        2.98750        0.40908
H         -3.63572       -0.33253       -0.71630
C         -5.26550        1.13466       -0.68267
C         -4.07870        0.11555        1.34809
H         -3.63992        4.09321       -0.11991
H         -6.13834        0.71596       -0.16067
H         -5.38028        0.84086       -1.73653
H         -3.11600       -0.22720        1.73261
H         -4.39337        0.96312        1.95979
H         -4.80546       -0.68738        1.49303
C         -1.22822       -3.57416        1.30127
C         -0.76950       -3.29493       -0.01123
C         -0.37249       -2.00234       -0.30250
C         -0.35948       -1.02993        0.66110
C         -0.69155       -1.32203        1.95763
C         -1.09263       -2.59669        2.32061
O         -1.85951       -4.81432        1.58476
C         -0.73641       -4.35158       -1.12544
H         -0.07821       -1.72509       -1.29960
H         -0.64533       -0.53166        2.68592
C         -1.39867       -2.89234        3.79708
C          4.66909        0.86732       -0.03817
C          3.88060        1.61966       -0.94650
C          2.50169        1.56129       -0.82535
C          1.91023        0.73520        0.09331
C          2.66519       -0.07381        0.90205
C          4.04836       -0.05975        0.83722
O          6.07497        1.06274        0.01529
C          4.49836        2.49167       -2.05107
H          1.86554        2.15513       -1.45876
H          2.15237       -0.72655        1.58752
C          4.84776       -1.03359        1.71713
C         -2.07062       -4.32501       -1.88653
C          0.40679       -4.05377       -2.12284
C         -0.47753       -5.75651       -0.55231
C         -1.08392       -4.35873        4.14461
C         -0.52395       -2.01332        4.71993
C         -2.87635       -2.58602        4.08463
C         -3.26825       -4.80115        1.39049
H         -2.90549       -4.54751       -1.22618
H         -2.24568       -3.34129       -2.32183
H         -2.07455       -5.05703       -2.69364
H          1.35552       -3.93416       -1.60032
H          0.51848       -4.86830       -2.83802
H          0.21602       -3.14881       -2.69765
H         -1.28566       -6.07328        0.10220
H         -0.39012       -6.49488       -1.34895
H          0.44560       -5.77047        0.02618
H         -1.72251       -5.04315        3.59169
H         -0.04898       -4.59696        3.90130
H         -1.23601       -4.55144        5.20631
H          0.53048       -2.11073        4.46233
H         -0.79765       -0.96133        4.65352
H         -0.64276       -2.30905        5.76206
H         -3.12299       -2.79631        5.12500
H         -3.09754       -1.53659        3.89251
H         -3.53261       -3.18340        3.45621
H         -3.54117       -5.54286        0.64004
H         -3.76828       -5.06051        2.32352
H         -3.59825       -3.81438        1.06285
C          6.48535        2.07852        0.92170
C          5.82257        1.88993       -2.55581
C          3.55084        2.57694       -3.26983
C          4.73321        3.90994       -1.51035
C          5.15391       -0.36643        3.06636
C          4.03723       -2.32452        1.97774
C          6.15597       -1.45736        1.02504
H          6.22619        2.47032       -3.38507
H          6.57464        1.87126       -1.77097
H          5.67223        0.86685       -2.89887
H          3.25516        1.58172       -3.60094
H          2.64935        3.14328       -3.04132
H          4.03896        3.07712       -4.10591
H          3.79597        4.35570       -1.17806
H          5.41392        3.90075       -0.66247
H          5.16041        4.55464       -2.27802
H          5.71268       -1.03904        3.71664
H          5.74205        0.53851        2.93401
H          4.23187       -0.09066        3.57772
H          3.69037       -2.76043        1.04111
H          4.64864       -3.06904        2.48708
H          3.17071       -2.13686        2.61020
H          6.69173       -2.19768        1.61862
H          6.82040       -0.60920        0.87956
H          5.94923       -1.89120        0.04727
H          7.03362        2.85035        0.38183
H          5.61903        2.52326        1.41298
H          7.14990        1.65144        1.67254
