171
-217.83958127
P         -1.68380        0.66886        0.15269
P          1.46761       -0.20229       -0.22275
C         -0.85613        1.84993       -0.93498
C          0.69427       -0.80548       -1.73394
C         -0.15732        1.49873       -2.08391
C          0.52050        2.50592       -2.79692
C          0.45755        3.81497       -2.34977
C         -0.24352        4.14461       -1.21012
C         -0.89168        3.15352       -0.49926
C          0.85929       -2.11238       -2.12076
C          0.26434       -2.57413       -3.27800
C         -0.50220       -1.71796       -4.04118
C         -0.69014       -0.39757       -3.66504
C         -0.05722        0.07648       -2.49971
Cl         1.86371        0.97675        2.92254
Cl        -1.18349        0.14597        3.42874
C         -1.53686        0.49920       -4.49902
C          1.32529        2.19834       -4.01086
H         -0.27985        5.16662       -0.86998
H         -1.42518        3.39248        0.40904
H          1.46048       -2.77227       -1.51937
H          0.39501       -3.60034       -3.58033
H          0.97913        4.57952       -2.90070
H         -0.95911       -2.07284       -4.94914
C         -2.88547       -3.42806       -1.36486
C         -1.93349       -3.35524       -0.35455
C         -1.54998       -2.09457        0.08487
C         -2.09705       -0.96383       -0.47505
C         -3.04969       -1.05627       -1.45976
C         -3.46887       -2.29758       -1.92256
H         -3.20205       -4.39055       -1.71987
H         -0.83458       -1.99636        0.88223
H         -3.47505       -0.14905       -1.85207
C         -5.60669        2.59615        1.36939
C         -4.86626        1.93381        2.34216
C         -3.66423        1.35674        1.96054
C         -3.22454        1.43873        0.66525
C         -3.96882        2.09390       -0.28458
C         -5.17754        2.69076        0.05000
H         -6.53772        3.05162        1.64646
H         -3.05132        0.84964        2.68325
H         -3.59619        2.15031       -1.29408
C          3.82307       -3.63606        1.63364
C          2.81785       -3.05485        2.39574
C          2.08842       -2.02074        1.82816
C          2.36570       -1.56866        0.55953
C          3.38206       -2.14218       -0.16571
C          4.12316       -3.19765        0.35089
H          4.39512       -4.44652        2.04452
H          1.30872       -1.55813        2.40418
H          3.59345       -1.76022       -1.14851
C          4.57860        2.90387       -1.32562
C          3.80129        3.11201       -0.19245
C          2.85922        2.14736        0.13331
C          2.68806        1.03947       -0.65594
C          3.45194        0.85744       -1.78310
C          4.42357        1.78663       -2.13752
H          5.34064        3.61709       -1.57647
H          2.27364        2.24595        1.02967
H          3.27621       -0.01271       -2.39134
Pd         0.11719        0.44668        1.61620
C          0.16085       -4.61638        0.24755
C         -1.37503       -4.60713        0.33922
C         -1.90089       -5.90375       -0.30639
C         -1.80995       -4.58569        1.81576
H          0.48307       -4.66752       -0.79160
H          0.58802       -3.71972        0.69102
H          0.57947       -5.47709        0.76868
H         -1.48139       -6.77909        0.18945
H         -2.98580       -5.97083       -0.22809
H         -1.62468       -5.95653       -1.35943
H         -2.89680       -4.58494        1.89587
H         -1.43295       -5.45839        2.34849
H         -1.44084       -3.69474        2.32155
C         -5.71376       -3.31056       -2.40162
C         -4.57434       -2.44833       -2.97797
C         -3.99668       -3.12633       -4.23212
C         -5.16390       -1.08270       -3.38107
H         -6.11152       -2.86264       -1.49113
H         -6.53122       -3.40445       -3.11633
H         -5.36954       -4.31488       -2.15823
H         -3.57961       -4.10477       -3.99632
H         -4.76674       -3.26399       -4.99098
H         -3.20358       -2.51959       -4.66574
H         -5.59402       -0.57546       -2.51786
H         -4.40301       -0.43699       -3.81729
H         -5.95487       -1.20501       -4.12086
C         -6.67074        2.52162        4.04114
C         -5.31759        1.82371        3.80563
C         -4.26165        2.48411        4.71198
C         -5.46195        0.33673        4.17994
H         -7.45433        2.07496        3.42938
H         -6.97546        2.43189        5.08378
H         -6.61044        3.58411        3.80608
H         -4.12513        3.53151        4.44389
H         -4.56242        2.43918        5.75846
H         -3.29614        1.98770        4.62195
H         -6.18653       -0.15492        3.53116
H         -4.51339       -0.18985        4.08127
H         -5.79932        0.22454        5.21012
C         -7.28830        4.01258       -0.48399
C         -5.97089        3.43366       -1.03444
C         -6.30684        2.45797       -2.17775
C         -5.11558        4.59320       -1.57870
H         -7.93151        3.22312       -0.09559
H         -7.09879        4.72988        0.31434
H         -7.83985        4.53128       -1.26807
H         -5.40284        2.06589       -2.64223
H         -6.88661        1.61382       -1.80496
H         -6.89099        2.95229       -2.95376
H         -4.84941        5.28349       -0.77846
H         -4.19131        4.22783       -2.02511
H         -5.65630        5.15252       -2.34194
C          2.81054       -2.27426        4.77285
C          2.52445       -3.46992        3.84480
C          3.39984       -4.65814        4.28610
C          1.04666       -3.87934        3.97645
H          2.62608       -2.53481        5.81473
H          3.84869       -1.95601        4.68142
H          2.17870       -1.42202        4.52476
H          3.22870       -5.52732        3.65114
H          4.45847       -4.40243        4.24624
H          3.17015       -4.94753        5.31152
H          0.81652       -4.70542        3.30467
H          0.81980       -4.19923        4.99322
H          0.38323       -3.04981        3.73593
C          6.56314       -3.78421        0.32374
C          5.23766       -3.88072       -0.45393
C          5.43377       -3.21587       -1.83111
C          4.86671       -5.35867       -0.67307
H          6.82339       -2.74258        0.51117
H          6.49759       -4.29120        1.28560
H          7.37855       -4.24018       -0.23755
H          5.70601       -2.16618       -1.72301
H          6.23115       -3.70738       -2.38830
H          4.52612       -3.27884       -2.43126
H          5.63073       -5.87053       -1.25795
H          4.76333       -5.88509        0.27512
H          3.91988       -5.44213       -1.20658
C          2.61585        5.09206        0.78153
C          3.95772        4.33915        0.71574
C          5.03506        5.30597        0.18892
C          4.36114        3.87535        2.12788
H          2.69463        5.97692        1.41271
H          2.30722        5.41271       -0.21312
H          1.82696        4.46103        1.18937
H          6.01145        4.82329        0.15166
H          4.78621        5.66264       -0.81045
H          5.12319        6.17713        0.83800
H          5.29658        3.31725        2.09687
H          4.49669        4.72657        2.79466
H          3.60140        3.22813        2.56440
C          6.76883        1.22277       -2.78426
C          5.36886        1.56021       -3.32725
C          5.44690        2.83049       -4.19658
C          4.89178        0.39568       -4.21812
H          7.47169        1.04368       -3.59770
H          7.15912        2.03774       -2.17529
H          6.73543        0.32829       -2.16247
H          4.46073        3.11504       -4.56069
H          5.85560        3.67287       -3.64052
H          6.08843        2.66797       -5.06259
H          4.89483       -0.54716       -3.67218
H          3.88409        0.57470       -4.59155
H          5.54791        0.27459       -5.07994
H         -1.98719        1.28920       -3.89581
H          2.31760        2.64298       -3.93355
H         -2.34672       -0.05529       -4.97487
H         -0.94875        0.96894       -5.28825
H          0.84850        2.59783       -4.90711
H          1.45569        1.12426       -4.14630
