59
-75.80185583
Cl         1.50159        0.95800        2.34858
P          1.58676        0.09400       -0.76412
P         -1.56698       -0.17208       -0.81186
C          0.64636        0.41842       -2.31651
H          0.36799        1.47550       -2.32612
H          1.30591        0.24065       -3.17151
C         -0.57437       -0.45657       -2.34633
H         -0.28965       -1.50893       -2.38941
H         -1.20750       -0.25873       -3.21706
C          2.30611       -1.61698       -0.77483
H          1.99231       -2.08047       -1.71760
C          3.15630        1.07378       -0.66444
H          3.30923        1.28785        0.40058
C         -2.64739       -1.59804       -0.29737
H         -2.30387       -1.91265        0.69625
C         -2.86833        1.10649       -1.16008
H         -2.66051        1.51340       -2.15765
C          3.83055       -1.38545       -0.75815
H          4.20624       -1.58537        0.25448
H          4.33739       -2.11544       -1.40687
C          4.20698        0.06533       -1.16005
H          4.27797        0.13879       -2.25438
H          5.20478        0.33439       -0.78033
C         -4.04501       -0.95069       -0.21253
H         -4.81834       -1.69670       -0.44656
H         -4.24591       -0.63291        0.82135
C         -4.16582        0.27540       -1.15495
H         -5.01420        0.91015       -0.85942
H         -4.39419       -0.07001       -2.17422
C          1.80455       -2.42863        0.41507
H          0.70878       -2.37884        0.45671
H          2.14272       -1.94202        1.34001
C          3.12546        2.37562       -1.45730
H          4.14589        2.77844       -1.52165
H          2.83795        2.15573       -2.49342
C         -2.59553       -2.78847       -1.25841
H         -3.50991       -3.38526       -1.13418
H         -2.63903       -2.41403       -2.28922
C         -2.88362        2.23589       -0.13421
H         -3.80847        2.81704       -0.25489
H         -2.94903        1.79729        0.86973
C          2.25988       -3.87988        0.38251
H          1.88440       -4.44592        1.23803
H          3.34862       -3.95527        0.39215
H          1.91141       -4.38189       -0.52207
C          2.19662        3.41623       -0.85510
H          2.48908        3.66252        0.16741
H          1.17197        3.05000       -0.81367
H          2.19022        4.34508       -1.43002
C         -1.38517       -3.68846       -1.05766
H         -1.38813       -4.53729       -1.74536
H         -1.35774       -4.09057       -0.04299
H         -0.45046       -3.15233       -1.21240
C         -1.68358        3.16211       -0.23208
H         -0.75539        2.62061       -0.05820
H         -1.61224        3.61606       -1.22231
H         -1.72886        3.97132        0.50034
Cl        -1.72587        0.21540        2.35096
Pd        -0.03381        0.25135        0.87990
