115
-277.94178158
P         -1.45998        0.34929        0.44473
P          2.20111        0.35527        0.58000
C         -2.51636        1.72256       -0.06173
C         -1.95192        2.89496       -0.51973
H         -0.91133        2.93093       -0.79500
C         -2.69865        4.05323       -0.52914
H         -2.23950        4.99705       -0.77516
C         -4.00399        4.04749       -0.06326
C         -4.60052        2.84088        0.26790
H         -5.61363        2.85077        0.63897
C         -3.85612        1.67590        0.26682
H         -4.29031        0.75377        0.61846
C         -2.35607       -1.16247        0.02666
C         -2.27189       -1.77258       -1.20354
H         -1.64234       -1.35400       -1.97063
C         -3.01866       -2.90428       -1.46492
H         -2.94661       -3.41009       -2.41737
C         -3.85923       -3.42703       -0.50073
C         -3.93921       -2.80433        0.73011
H         -4.61436       -3.19986        1.47113
C         -3.18450       -1.68099        0.99520
H         -3.24880       -1.19878        1.95793
C         -1.24985        0.40703        2.25943
C         -0.42868       -0.62271        2.67198
H         -0.02481       -1.27171        1.91510
C          0.00118       -0.72839        3.99914
C         -0.63785        0.07490        4.93903
H         -0.36750       -0.01194        5.97808
C         -1.48045        1.09227        4.53848
H         -1.85901        1.78383        5.27209
C         -1.70177        1.35615        3.18761
C          1.75727        1.23613        2.11202
C          0.93428        2.32840        1.90762
H          0.55908        2.53090        0.91928
C          0.44764        3.07556        2.98015
C          1.00886        2.84539        4.23210
H          0.67940        3.43266        5.07283
C          1.85516        1.77360        4.43725
H          2.18202        1.53939        5.43599
C          2.15470        0.88725        3.40376
C         -2.08484        2.77185        2.82128
H         -2.89794        3.11294        3.47256
H         -2.53035        2.77980        1.83076
C         -0.88129        3.77930        2.87075
H         -0.88765        4.43462        1.99317
H         -0.99335        4.45935        3.72237
C          1.34155       -1.34312        4.34186
H          1.36711       -2.39187        4.03181
H          1.42237       -1.38177        5.43350
C          2.55152       -0.52317        3.75930
H          3.37978       -0.49661        4.47544
H          2.97101       -0.99893        2.86924
C          2.09160       -1.42469        0.16097
C          2.24717       -1.70490       -1.18171
C          1.74616       -2.44084        1.02191
C          1.98940       -2.96887       -1.67100
C          1.47960       -3.70132        0.53721
C          1.57480       -3.96847       -0.81505
C          3.76355        1.01080       -0.01087
C          4.82296        0.16804       -0.25223
C          3.90381        2.36943       -0.16799
C          6.03298        0.69036       -0.65907
H          4.70755       -0.89432       -0.10915
C          5.11466        2.89085       -0.57765
H          3.06973        3.02072        0.03909
C          6.18486        2.05427       -0.82719
H          6.88008        0.04701       -0.83493
H          5.25399        3.95412       -0.69310
Pd         0.41271        0.66296       -0.94880
Cl        -1.12120        0.77095       -2.58840
Cl         2.04699        1.31970       -2.34855
H          1.13416       -4.48163        1.19539
H          1.65416       -2.25391        2.07165
H          2.03484       -3.17907       -2.72814
H          2.49786       -0.90823       -1.86463
C         -3.95038        5.60599        1.82908
C         -4.61791        5.32908        0.44329
C         -4.41413        6.49571       -0.56622
F         -4.43248        6.74415        2.34547
F         -4.23722        4.56912        2.62794
F         -2.62183        5.67644        1.67148
F         -5.92941        5.17219        0.63766
F         -3.10823        6.77581       -0.67712
F         -4.89487        6.09543       -1.75286
F         -5.08900        7.57212       -0.13395
C         -5.03008       -5.49089        0.38552
C         -4.77232       -4.57687       -0.85029
C         -6.09178       -3.98139       -1.42017
F         -5.68470       -6.59341       -0.01193
F         -3.84090       -5.82537        0.90948
F         -5.75049       -4.82323        1.29748
F         -4.22189       -5.33043       -1.80633
F         -5.77764       -3.31817       -2.54330
F         -6.95335       -4.97317       -1.69120
F         -6.61336       -3.13021       -0.52400
C          8.36246        2.76221        0.13337
C          7.52505        2.65235       -1.17329
C          8.24006        1.80588       -2.26789
F          8.46758        1.54792        0.69298
F          9.57466        3.26073       -0.15110
F          7.70409        3.58596        0.96251
F          7.36302        3.88655       -1.65820
F          9.33304        2.46159       -2.68782
F          8.57479        0.60949       -1.76500
F          7.37867        1.64611       -3.28372
C          1.36007       -6.46281       -0.48709
C          1.01529       -5.24217       -1.39035
C         -0.51820       -5.02415       -1.55138
F          2.68504       -6.45047       -0.27865
F          0.71799       -6.35501        0.68445
F          1.00150       -7.59192       -1.11781
F          1.53114       -5.46843       -2.60137
F         -1.09104       -6.14719       -2.00772
F         -1.03414       -4.66969       -0.36594
F         -0.69210       -4.02234       -2.42458
