58
-89.86697943
P          1.56007        0.25792        0.80629
C          1.60125        1.97119        0.26708
C          1.52572        3.01409        1.16208
C          1.54537        4.31698        0.69800
C          1.64481        4.56563       -0.65702
C          1.73198        3.51610       -1.55005
C          1.71313        2.21525       -1.08262
H          1.78572        1.37888       -1.76019
H          1.45070        2.80973        2.21748
C          3.18555       -0.49097        0.67876
C          4.29742        0.32039        0.68753
C          5.55905       -0.23997        0.59637
C          5.69662       -1.61046        0.49759
C          4.57806       -2.42031        0.48979
C          3.31791       -1.85718        0.58237
H          2.43674       -2.47806        0.56210
H          4.17256        1.38899        0.76197
C          0.96060        0.06510        2.53735
C          0.25591       -1.27295        2.73816
C         -1.23949       -1.24251        2.45450
P         -1.70547       -0.61723        0.78174
C         -3.23801       -1.39691        0.26951
C         -3.27647       -2.76208        0.10280
C         -4.45229       -3.37245       -0.29657
C         -5.58081       -2.60967       -0.52430
C         -5.53704       -1.23973       -0.35544
C         -4.35973       -0.63237        0.04250
H         -4.30914        0.43626        0.17466
H         -2.38321       -3.34274        0.27218
C         -1.85005        1.17949        0.70643
C         -1.90020        1.75879       -0.54163
C         -1.96460        3.13424       -0.66603
C         -1.98493        3.92382        0.46565
C         -1.94824        3.34031        1.71635
C         -1.88310        1.96434        1.83639
H         -1.86869        1.50641        2.81093
H         -1.88167        1.12626       -1.41556
Pd         0.09118       -0.71375       -0.69253
Cl         1.81820       -1.04414       -2.09221
Cl        -1.38327       -1.60280       -2.13769
H         -1.67040       -2.24291        2.54259
H         -1.76189       -0.62215        3.18414
H          0.73597       -2.02534        2.09756
H          0.41811       -1.63048        3.76713
H          1.84623        0.15971        3.17106
H          0.30189        0.89622        2.78793
H          1.47905        5.13704        1.39398
H          1.81332        3.70820       -2.60719
H          6.43144        0.39262        0.60031
H          4.68512       -3.48939        0.40687
H         -4.48466       -4.44074       -0.43412
H         -6.41676       -0.64399       -0.53562
H         -1.99203        3.58681       -1.64354
H         -1.96772        3.95717        2.59980
H          1.65629        5.58110       -1.01804
H          6.67856       -2.04869        0.42363
H         -6.49658       -3.08413       -0.83732
H         -2.02893        4.99671        0.37275
