111
-148.54779326
P         -2.43005        2.24785       -0.26914
P         -0.13149        0.18067        0.45945
C         -1.89032        2.07125        1.44902
C         -0.88671        1.18032        1.75814
C         -2.60183        4.03567       -0.71332
C         -1.77213        4.37116       -1.93342
C         -2.45300        2.84832        2.44109
H         -3.23008        3.55173        2.18975
C         -2.00849        2.72701        3.74636
H         -2.44848        3.33192        4.52233
C         -0.99544        1.83907        4.05317
H         -0.64285        1.75040        5.06758
C         -0.42846        1.06776        3.05445
H          0.37835        0.38586        3.27422
Pd        -1.02235        0.94783       -1.55122
Cl        -2.24384        1.43827       -3.36334
Cl         0.58978       -0.24530       -2.57088
C         -4.12199        4.20099       -0.92031
C         -4.15389        1.65756       -0.59020
H         -2.10538        3.79104       -2.79543
H         -1.85377        5.42852       -2.19635
H         -0.71586        4.14296       -1.77169
H         -4.30597        4.96481       -1.68989
H         -4.58503        4.58999       -0.00157
H         -4.06705        0.79369       -1.26368
C         -4.80224        2.85820       -1.30958
C         -4.84704        1.25685        0.69420
H         -2.25368        4.61171        0.15489
H         -5.87774        2.88708       -1.08150
H         -4.73321        2.72000       -2.39874
H         -4.28937        0.47782        1.21982
H         -4.93516        2.11088        1.36769
H         -5.85578        0.88207        0.50499
C         -1.08317       -4.26163        0.91620
C         -0.51003       -3.77494       -0.28561
C         -0.25145       -2.41926       -0.38329
C         -0.47567       -1.56934        0.66741
C         -0.94288       -2.05257        1.86208
C         -1.21793       -3.39906        2.03393
O         -1.55252       -5.60035        0.98906
C         -0.20947       -4.68166       -1.48971
H          0.11424       -1.99470       -1.30060
H         -1.10718       -1.35630        2.66417
C         -1.68196       -3.89627        3.41257
C          4.26883        1.29061        0.11751
C          3.26956        2.29621        0.15448
C          1.94913        1.90205        0.29464
C          1.60732        0.57512        0.33092
C          2.55723       -0.40145        0.18971
C          3.89530       -0.07600        0.04148
O          5.64170        1.64907        0.18417
C          3.59507        3.79501        0.06146
H          1.16039        2.63074        0.37913
H          2.23554       -1.42772        0.18867
C          4.91904       -1.19711       -0.19716
C          0.19044       -6.09629       -1.03294
C         -1.44697       -4.74518       -2.39772
C          0.97389       -4.12533       -2.31373
C         -1.08196       -3.02304        4.53852
C         -3.21377       -3.81401        3.49466
C         -1.21227       -5.33988        3.66891
C         -2.91390       -5.76064        0.60981
H         -0.62507       -6.59102       -0.51157
H          0.46398       -6.72003       -1.88358
H          1.04270       -6.05373       -0.35553
H         -2.30541       -5.15037       -1.86768
H         -1.71548       -3.74998       -2.75150
H         -1.26095       -5.37399       -3.26797
H          1.84261       -3.96044       -1.67826
H          1.26211       -4.82512       -3.09773
H          0.72138       -3.18557       -2.80231
H          0.00096       -2.95284        4.43930
H         -1.49390       -2.01497        4.53104
H         -1.30116       -3.44969        5.51708
H         -3.57105       -4.14887        4.46816
H         -3.55294       -2.78924        3.34468
H         -3.68382       -4.43229        2.73385
H         -1.65887       -6.03456        2.96208
H         -0.12971       -5.41401        3.57108
H         -1.48573       -5.66891        4.67114
H         -2.98016       -6.44682       -0.23432
H         -3.47695       -6.18802        1.43934
H         -3.34764       -4.79916        0.33217
C          6.15999        1.72181        1.50624
C          3.82629        4.35319        1.47374
C          4.83543        4.03920       -0.81697
C          2.42418        4.56751       -0.58889
C          4.25833       -2.39236       -0.92041
C          6.07033       -0.70959       -1.09557
C          5.46839       -1.68496        1.15159
H          4.65534        3.85014        1.96562
H          4.05067        5.41902        1.44068
H          2.94023        4.21346        2.09267
H          5.72511        3.59202       -0.38069
H          4.69513        3.60593       -1.80670
H          5.02737        5.10515       -0.93683
H          2.70148        5.60458       -0.77629
H          2.14586        4.11811       -1.54185
H          1.54481        4.58374        0.05338
H          3.73946       -2.06144       -1.81983
H          5.00565       -3.12829       -1.21618
H          3.54366       -2.90353       -0.27718
H          5.68315       -0.32100       -2.03691
H          6.63882        0.08355       -0.61612
H          6.76203       -1.52067       -1.32167
H          4.66224       -2.05548        1.78439
H          5.96784       -0.88198        1.68796
H          6.18612       -2.49284        1.01123
H          6.51418        2.73298        1.70556
H          5.39061        1.45594        2.23223
H          7.00502        1.04055        1.60452
