111
-148.55267475
P         -1.42205        2.64217        1.21308
P         -0.28544       -0.24167        0.55690
C         -0.90943        1.54082        2.56240
C         -0.47863        0.26206        2.27801
C         -0.26838        4.08270        1.09642
C          0.52014        4.03591       -0.19536
C         -0.91326        1.98905        3.86787
H         -1.20890        3.00321        4.08110
C         -0.51260        1.14419        4.88853
H         -0.51987        1.49292        5.90831
C         -0.09612       -0.14158        4.60152
H          0.22170       -0.79710        5.39554
C         -0.06825       -0.58039        3.28997
H          0.28912       -1.56825        3.04459
Pd        -1.59041        1.25237       -0.62314
Cl        -3.10477        2.63801       -1.52345
Cl        -1.60405       -0.18539       -2.35390
C         -1.20392        5.30118        1.22680
C         -3.01425        3.52783        1.54722
H          1.18431        4.89817       -0.28991
H          1.13089        3.13283       -0.25802
H         -0.15082        4.03637       -1.05684
H         -1.42359        5.68440        0.22089
H         -0.69152        6.12347        1.74863
H         -3.53900        3.57044        0.58409
C         -2.53776        4.93767        1.94014
C         -3.87365        2.82615        2.57726
H          0.39612        4.01084        1.96730
H         -2.39746        4.97590        3.02905
H         -3.31840        5.68117        1.71751
H         -4.82012        3.35001        2.72888
H         -4.09879        1.80181        2.27172
H         -3.37118        2.77600        3.54338
C         -0.95054       -4.68945       -0.18564
C         -1.78361       -3.99422        0.73068
C         -1.53448       -2.64938        0.95440
C         -0.55119       -1.98691        0.26584
C          0.17076       -2.62573       -0.70815
C         -0.03676       -3.96413       -0.99530
O         -0.97208       -6.10700       -0.23590
C         -2.95659       -4.64697        1.48119
H         -2.10843       -2.10075        1.68211
H          0.90673       -2.06370       -1.25603
C          0.70277       -4.55844       -2.20605
C          3.69689        1.37357       -0.96492
C          3.40059        1.40967        0.42189
C          2.20647        0.85643        0.85234
C          1.29652        0.35593       -0.04168
C          1.52664        0.43190       -1.39023
C          2.70449        0.95842       -1.88864
O          4.99094        1.73242       -1.42751
C          4.34835        2.03766        1.45584
H          1.96337        0.82208        1.89962
H          0.74439        0.10582       -2.05262
C          2.89047        1.07031       -3.40967
C         -3.36017       -6.00078        0.87125
C         -2.57141       -4.84316        2.95662
C         -4.19590       -3.72856        1.39837
C          0.14188       -5.92919       -2.62195
C          0.53145       -3.61359       -3.41657
C          2.19866       -4.69426       -1.87781
C         -0.03411       -6.70023        0.64621
H         -4.25169       -6.39979        1.35447
H         -3.56757       -5.89590       -0.19311
H         -2.56722       -6.73621        0.98551
H         -3.39420       -5.28415        3.51873
H         -1.70898       -5.50008        3.05311
H         -2.31811       -3.89143        3.42281
H         -4.43880       -3.50429        0.36010
H         -5.06432       -4.20625        1.85127
H         -4.03744       -2.78562        1.91881
H         -0.93277       -5.86904       -2.79055
H          0.61126       -6.28419       -3.53912
H          0.31686       -6.67675       -1.85187
H         -0.52465       -3.44391       -3.62414
H          0.99693       -2.64513       -3.24348
H          0.98698       -4.03876       -4.31046
H          2.35537       -5.36144       -1.03203
H          2.74897       -5.09509       -2.72866
H          2.63220       -3.72736       -1.62401
H         -0.07441       -7.78429        0.53795
H          0.97081       -6.35132        0.41283
H         -0.26896       -6.43255        1.67523
C          5.91101        0.64947       -1.47487
C          3.55090        2.60790        2.65145
C          5.31543        0.96474        1.97780
C          5.13508        3.21112        0.84418
C          3.73328        2.30654       -3.77148
C          3.56657       -0.20523       -3.93458
C          1.52571        1.23112       -4.11825
H          2.77235        3.28824        2.30810
H          3.08319        1.81961        3.23939
H          4.20551        3.16188        3.32385
H          5.99593        1.38041        2.72050
H          4.76714        0.14580        2.44288
H          5.91282        0.54656        1.17120
H          4.45443        3.95576        0.43262
H          5.75822        3.69835        1.59369
H          5.78749        2.87611        0.04168
H          3.81437        2.42321       -4.85186
H          3.28132        3.21091       -3.36530
H          4.74168        2.22918       -3.37229
H          4.54594       -0.34621       -3.48401
H          2.96554       -1.08373       -3.70178
H          3.69654       -0.16175       -5.01561
H          0.92584        0.32486       -4.04883
H          1.66258        1.44240       -5.17842
H          0.95705        2.05323       -3.68429
H          6.75725        0.85927       -0.82100
H          5.42710       -0.27557       -1.15887
H          6.28708        0.53487       -2.49138
