171
-217.84706964
P         -1.59611        0.35504       -0.32445
P          1.60358       -0.44694       -0.27426
C         -0.85206        1.31785       -1.64440
C          0.90120       -1.38805       -1.63789
C         -0.06375        0.70526       -2.61132
C          0.55506        1.50794       -3.58908
C          0.33704        2.87574       -3.57876
C         -0.46513        3.46106       -2.62207
C         -1.05300        2.67631       -1.64926
C          1.09685       -2.74790       -1.64782
C          0.51266       -3.52925       -2.62480
C         -0.28288       -2.93928       -3.58363
C         -0.49369       -1.57059       -3.59310
C          0.12305       -0.77099       -2.61151
Cl         1.60483        0.17175        2.85999
Cl        -1.61935       -0.51284        2.90426
C         -1.36881       -0.97641       -4.64083
C          1.42005        0.91090       -4.64352
H         -0.63272        4.52556       -2.63320
H         -1.67333        3.12432       -0.88959
H          1.71069       -3.20328       -0.88817
H          0.67379       -4.59485       -2.63262
H          0.80561        3.48469       -4.33343
H         -0.75482       -3.54504       -4.33882
C         -3.87183       -3.28324       -1.74718
C         -2.88744       -3.44114       -0.78005
C         -2.20321       -2.30747       -0.36173
C         -2.47941       -1.08391       -0.91863
C         -3.43790       -0.94761       -1.89272
C         -4.16370       -2.05269       -2.32277
H         -4.44246       -4.14267       -2.04697
H         -1.45400       -2.36780        0.40815
H         -3.61697        0.02974       -2.30750
C         -4.34278        2.99185        2.14485
C         -2.96947        3.11406        2.31449
C         -2.14703        2.31558        1.53024
C         -2.68509        1.40372        0.65546
C         -4.04564        1.27704        0.52342
C         -4.90571        2.07847        1.26276
H         -4.99521        3.62573        2.71622
H         -1.07657        2.38790        1.60979
H         -4.43258        0.54221       -0.15889
C          4.56271       -2.89891        2.14040
C          5.02432       -1.81651        1.39989
C          4.09844       -1.09665        0.65830
C          2.77304       -1.45144        0.65315
C          2.33346       -2.52190        1.39086
C          3.22081       -3.26382        2.15918
H          5.26324       -3.46564        2.72267
H          4.41368       -0.23881        0.09058
H          1.28517       -2.76864        1.38238
C          3.70688        3.41106       -1.34218
C          4.03321        2.25744       -2.04553
C          3.34714        1.08914       -1.73417
C          2.38631        1.09065       -0.75313
C          2.08253        2.23701       -0.06242
C          2.73810        3.42707       -0.34600
H          4.24171        4.31428       -1.56770
H          3.56797        0.16349       -2.23795
H          1.34512        2.19717        0.72078
Pd        -0.04567       -0.15297        1.35340
C         -3.83249       -5.26111        0.65404
C         -2.61269       -4.82443       -0.17538
C         -1.37278       -4.80179        0.73987
C         -2.35909       -5.84150       -1.30431
H         -3.66736       -6.23841        1.10723
H         -4.02962       -4.54640        1.45289
H         -4.72643       -5.32462        0.03434
H         -0.49590       -4.45696        0.19288
H         -1.52609       -4.14640        1.59687
H         -1.15612       -5.79826        1.12446
H         -3.23421       -5.95682       -1.94229
H         -1.52791       -5.52073       -1.93111
H         -2.11519       -6.82258       -0.89710
C         -5.11385       -2.96948       -4.46884
C         -5.30687       -1.93656       -3.34159
C         -5.36314       -0.53203       -3.97407
C         -6.64135       -2.20504       -2.62289
H         -5.89857       -2.87589       -5.21940
H         -4.15566       -2.82841       -4.96672
H         -5.14476       -3.98875       -4.08646
H         -6.15671       -0.47506       -4.71899
H         -5.56530        0.23077       -3.22269
H         -4.42479       -0.28677       -4.47041
H         -6.65958       -3.20425       -2.18881
H         -6.79584       -1.48846       -1.81681
H         -7.48074       -2.12326       -3.31318
C         -0.90524        3.84461        3.60505
C         -2.39661        4.11837        3.32488
C         -3.15448        4.00823        4.66278
C         -2.54780        5.53892        2.75620
H         -0.52715        4.50920        4.38165
H         -0.75283        2.81844        3.93950
H         -0.30115        4.00986        2.71545
H         -3.11453        2.98762        5.04296
H         -2.71491        4.66470        5.41357
H         -4.20139        4.28840        4.55668
H         -2.14469        6.28115        3.44495
H         -2.01769        5.63298        1.80854
H         -3.59588        5.77789        2.57752
C         -7.00123        3.32595        0.67681
C         -6.43212        1.97169        1.13771
C         -7.02774        1.59464        2.50654
C         -6.84392        0.89531        0.11381
H         -6.78061        4.11402        1.39582
H         -6.57169        3.61737       -0.28154
H         -8.08365        3.27484        0.56019
H         -6.80842        2.35344        3.25672
H         -8.11077        1.48928        2.44542
H         -6.61523        0.64879        2.85723
H         -6.47476       -0.08694        0.40833
H         -7.92905        0.82980        0.03569
H         -6.45579        1.12869       -0.87739
C          7.37250       -2.28389        2.26727
C          6.49491       -1.37592        1.38497
C          6.59433        0.06720        1.91497
C          7.02697       -1.43301       -0.05928
H          7.04285       -2.25865        3.30575
H          7.34311       -3.31623        1.91916
H          8.41220       -1.95755        2.24370
H          7.63052        0.40403        1.93891
H          6.03378        0.75968        1.28784
H          6.19308        0.13367        2.92599
H          6.46713       -0.76613       -0.71381
H          8.07520       -1.13767       -0.10124
H          6.94371       -2.44277       -0.46070
C          2.23133       -5.55764        2.02684
C          2.69226       -4.44542        2.98462
C          1.50417       -3.97683        3.84871
C          3.77402       -5.01603        3.92189
H          3.06244       -5.90874        1.41550
H          1.83230       -6.40895        2.57802
H          1.45409       -5.19768        1.35472
H          0.66900       -3.64223        3.23519
H          1.14221       -4.78403        4.48509
H          1.79960       -3.14672        4.48995
H          3.37033       -5.82518        4.53042
H          4.61320       -5.42016        3.35623
H          4.14931       -4.24797        4.59798
C          6.49091        2.61588       -2.34633
C          5.17326        2.28903       -3.07334
C          4.88501        3.36850       -4.13359
C          5.33592        0.93254       -3.78695
H          6.70273        1.87056       -1.57979
H          7.32844        2.63124       -3.04352
H          6.44239        3.58967       -1.86021
H          3.93468        3.17928       -4.63100
H          4.83589        4.36113       -3.68796
H          5.66566        3.38545       -4.89395
H          4.42228        0.64896       -4.30760
H          6.13627        0.97793       -4.52540
H          5.58804        0.14353       -3.07885
C          2.63280        4.39071        1.96413
C          2.39938        4.68265        0.46931
C          0.92548        5.05701        0.23357
C          3.27749        5.88228        0.06540
H          2.01405        3.56438        2.31069
H          3.67342        4.12215        2.14459
H          2.39794        5.26270        2.57418
H          0.75844        5.31075       -0.81244
H          0.26280        4.23058        0.48437
H          0.63755        5.91656        0.83852
H          3.02719        6.76113        0.65955
H          4.33382        5.66608        0.22423
H          3.13053        6.14093       -0.98307
H         -0.85984       -0.94932       -5.60526
H          2.26227        1.56395       -4.87280
H         -1.66609        0.04140       -4.38503
H         -2.27916       -1.56354       -4.76088
H          0.85926        0.75675       -5.56623
H          1.82438       -0.05191       -4.32799
