111
-148.55213011
P         -2.40180        2.40764        0.33557
P         -0.11499        0.21694        0.52734
C         -1.88539        1.78838        1.95474
C         -0.91269        0.81609        2.03209
C         -2.33756        4.25345        0.26293
C         -1.19432        4.71402       -0.61506
C         -2.48185        2.26373        3.10465
H         -3.23498        3.03191        3.03416
C         -2.11236        1.74753        4.33470
H         -2.57855        2.11568        5.23399
C         -1.15387        0.75512        4.40941
H         -0.87292        0.34595        5.36588
C         -0.55385        0.28641        3.25434
H          0.18531       -0.49839        3.29606
Pd        -1.23684        1.19534       -1.24745
Cl        -2.42426        2.34376       -2.77341
Cl        -0.15884       -0.06994       -2.75690
C         -3.73771        4.63366       -0.25488
C         -4.20023        2.12951       -0.01336
H         -1.30908        4.33054       -1.63065
H         -1.15096        5.80406       -0.67588
H         -0.23369        4.35562       -0.23670
H         -3.68749        4.75738       -1.34543
H         -4.03958        5.61559        0.13997
H         -4.25195        1.77365       -1.05103
C         -4.79425        3.54598        0.09125
C         -4.81096        1.11235        0.92710
H         -2.20155        4.59792        1.29651
H         -5.16082        3.70218        1.11507
H         -5.67952        3.63816       -0.55622
H         -4.29224        0.15346        0.86292
H         -4.74664        1.44952        1.96257
H         -5.86624        0.94295        0.70117
C         -1.03037       -4.18361       -0.19498
C          0.23404       -3.65983       -0.57375
C          0.48321       -2.31917       -0.33742
C         -0.43347       -1.52779        0.30223
C         -1.61047       -2.05304        0.76759
C         -1.91808       -3.39133        0.58195
O         -1.43710       -5.46155       -0.65712
C          1.34641       -4.48297       -1.24461
H          1.40084       -1.87108       -0.67535
H         -2.29552       -1.39983        1.28115
C         -3.19387       -3.93457        1.24789
C          4.38071        0.97757        0.36715
C          3.68845        1.17082        1.59003
C          2.32394        0.93530        1.61705
C          1.63916        0.59772        0.47831
C          2.28909        0.53015       -0.72625
C          3.65166        0.74623       -0.82637
O          5.80087        0.97714        0.34587
C          4.40139        1.59176        2.88488
H          1.77700        1.00672        2.53922
H          1.70633        0.29256       -1.59835
C          4.31528        0.68480       -2.21088
C          1.44026       -4.09162       -2.72913
C          2.69724       -4.18137       -0.55727
C          1.10934       -5.99806       -1.12396
C         -3.26854       -3.42521        2.70502
C         -4.42814       -3.43545        0.47896
C         -3.21041       -5.47192        1.30854
C         -2.11710       -5.40504       -1.90011
H          1.63722       -3.02567       -2.83918
H          2.24330       -4.63523       -3.22605
H          0.51200       -4.31091       -3.25300
H          3.48962       -4.80687       -0.96760
H          3.00100       -3.14495       -0.69367
H          2.63558       -4.37599        0.51302
H          0.97005       -6.28335       -0.08182
H          0.22299       -6.30383       -1.67453
H          1.95386       -6.56065       -1.52127
H         -3.38241       -2.34342        2.75160
H         -4.11953       -3.86281        3.22633
H         -2.36524       -3.69297        3.25247
H         -5.34710       -3.78153        0.95139
H         -4.45505       -2.34686        0.45048
H         -4.42467       -3.79343       -0.54850
H         -3.25819       -5.90562        0.31251
H         -2.30958       -5.84694        1.79306
H         -4.07323       -5.83388        1.86717
H         -2.38371       -6.41552       -2.21054
H         -3.02185       -4.80749       -1.80494
H         -1.47730       -4.95238       -2.65583
C          6.38148       -0.30458        0.55278
C          3.44705        2.39610        3.79703
C          4.86212        0.33759        3.64287
C          5.60621        2.50164        2.58358
C          3.33396        1.16104       -3.30665
C          5.54551        1.60750       -2.27966
C          4.72103       -0.76564       -2.51458
H          3.98372        2.80610        4.65231
H          2.99987        3.22758        3.25286
H          2.64560        1.77364        4.19220
H          5.35932        0.60529        4.57486
H          4.01232       -0.30044        3.88453
H          5.55776       -0.24928        3.04794
H          5.29483        3.37245        2.00764
H          6.07242        2.85236        3.50398
H          6.36603        1.97676        2.00987
H          2.50755        0.46471       -3.43996
H          2.92132        2.13871       -3.05937
H          3.83887        1.24426       -4.26870
H          5.27237        2.63040       -2.02271
H          6.32175        1.28685       -1.58956
H          5.97636        1.61247       -3.28056
H          5.41778       -1.14473       -1.77067
H          5.19658       -0.84166       -3.49204
H          3.84794       -1.41757       -2.51337
H          5.60469       -1.05270        0.71632
H          6.97586       -0.58279       -0.31730
H          7.04183       -0.27052        1.41920
