111
-148.55607516
P         -2.66833        1.87036        0.57567
P          0.16888        0.47149        0.47022
C         -1.77560        1.52864        2.11697
C         -0.51218        0.98037        2.06180
C         -3.62746        3.44989        0.68405
C         -2.92275        4.58835       -0.02068
C         -2.34850        1.81471        3.33986
H         -3.34419        2.22470        3.37992
C         -1.64800        1.55824        4.50594
H         -2.09464        1.78179        5.46103
C         -0.37905        1.01485        4.44759
H          0.16524        0.81282        5.35541
C          0.18833        0.71987        3.22125
H          1.16994        0.27766        3.15953
Pd        -1.11545        1.58663       -1.11129
Cl        -2.61008        2.51930       -2.49762
Cl         0.48943        1.17015       -2.62478
C         -4.98913        3.05656        0.08301
C         -4.03516        0.67916        0.19810
H         -3.49392        5.51679        0.05135
H         -1.93191        4.76505        0.40440
H         -2.78904        4.36745       -1.08008
H         -4.96990        3.26143       -0.99637
H         -5.78831        3.69376        0.49158
H         -3.88444        0.36649       -0.84397
C         -5.30045        1.55043        0.31870
C         -4.00364       -0.51515        1.12691
H         -3.73771        3.67344        1.75265
H         -5.72540        1.41857        1.32323
H         -6.07601        1.19692       -0.37754
H         -4.08332       -0.19828        2.16839
H         -4.82842       -1.20206        0.92347
H         -3.06981       -1.07077        1.02430
C         -1.39807       -3.72201       -0.36121
C         -0.96356       -2.90563       -1.43638
C         -0.48207       -1.64250       -1.14343
C         -0.37083       -1.20729        0.14997
C         -0.68063       -2.03460        1.19701
C         -1.15677       -3.31607        0.97671
O         -2.11479       -4.91961       -0.62357
C         -1.06043       -3.34174       -2.90585
H         -0.20345       -0.96161       -1.92815
H         -0.56802       -1.65531        2.19745
C         -1.44202       -4.22109        2.18483
C          4.71209        0.63107        0.24762
C          4.07020       -0.44283        0.91602
C          2.68555       -0.46205        0.94488
C          1.95270        0.56906        0.41748
C          2.56981        1.66252       -0.12994
C          3.95095        1.73975       -0.20380
O          6.10921        0.57885       -0.00292
C          4.84470       -1.59404        1.57697
H          2.15523       -1.29785        1.36841
H          1.95110        2.44913       -0.52603
C          4.59658        2.99292       -0.81528
C          0.06013       -2.68420       -3.74375
C         -0.89198       -4.86520       -3.04660
C         -2.41873       -2.90224       -3.47370
C         -0.45826       -3.91267        3.33680
C         -2.87431       -3.97062        2.68091
C         -1.25693       -5.70615        1.82402
C         -3.52449       -4.74320       -0.69132
H          0.07555       -3.08951       -4.75514
H         -0.08106       -1.60823       -3.83380
H          1.03648       -2.86541       -3.29519
H         -0.89809       -5.16503       -4.09423
H          0.05044       -5.18912       -2.60629
H         -1.69493       -5.40110       -2.54672
H         -2.53350       -1.82069       -3.40320
H         -2.51367       -3.18427       -4.52191
H         -3.24067       -3.35819       -2.92682
H          0.57313       -3.96025        2.98821
H         -0.63079       -2.92541        3.76271
H         -0.57185       -4.63382        4.14589
H         -3.00116       -2.93169        2.98438
H         -3.60361       -4.17913        1.90157
H         -3.10669       -4.60235        3.53783
H         -1.97373       -6.02420        1.07122
H         -0.25716       -5.88305        1.42884
H         -1.39375       -6.34202        2.69834
H         -4.00739       -5.35432        0.07098
H         -3.78508       -3.69547       -0.53577
H         -3.88679       -5.06615       -1.66719
C          6.45447       -0.05576       -1.22801
C          6.20328       -1.11219        2.11744
C          4.05703       -2.15851        2.78178
C          5.04966       -2.72219        0.55463
C          4.74918        2.79374       -2.33103
C          3.71416        4.23806       -0.57021
C          5.96647        3.28188       -0.17515
H          6.72291       -1.91349        2.64222
H          6.85186       -0.77067        1.31475
H          6.06768       -0.28384        2.81202
H          3.14754       -2.66812        2.46714
H          4.65662       -2.88516        3.32959
H          3.78283       -1.36198        3.47306
H          5.58600       -3.55983        0.99977
H          4.09081       -3.09035        0.19026
H          5.61924       -2.37726       -0.30493
H          3.77935        2.61368       -2.79441
H          5.18941        3.67397       -2.79868
H          5.38506        1.94071       -2.55473
H          4.22807        5.14480       -0.88854
H          2.78133        4.18749       -1.12977
H          3.47597        4.34240        0.48798
H          6.39366        4.20585       -0.56408
H          6.67534        2.48254       -0.37584
H          5.87160        3.38048        0.90569
H          5.55605       -0.38119       -1.75403
H          7.01153        0.63962       -1.85567
H          7.09111       -0.91735       -1.02778
