105
-153.07206012
Cl        -0.01038        1.96363        3.01165
Pd        -0.60214        1.12160        1.00280
P         -1.27169        0.49723       -1.14722
N         -0.96752       -1.06478       -1.89008
C          0.06699       -1.96509       -1.61691
C          0.31886       -2.46748       -0.31250
C          1.34505       -3.41567       -0.12366
C          1.57223       -3.97864        1.25940
C          2.45223       -5.23753        1.30052
C          3.67068       -5.08475        0.38584
C          3.23129       -4.84779       -1.06672
C          2.11009       -3.84892       -1.20990
C          1.82365       -3.36617       -2.48034
C          0.82083       -2.45509       -2.68341
H          0.61446       -2.09046       -3.67452
H          2.40720       -3.71720       -3.31461
H          4.08336       -4.51102       -1.67111
H          4.27640       -4.23613        0.72748
H          2.76453       -5.46267        2.33009
H          2.02457       -3.19620        1.87938
C         -0.61739       -2.18427        0.80132
C         -0.14005       -1.59789        2.00732
C         -1.01511       -1.50554        3.09465
C         -2.31298       -1.93516        2.99537
C         -2.80016       -2.50268        1.82439
C         -4.23319       -2.98209        1.81367
C         -4.73730       -3.48219        0.44885
C         -3.64050       -4.24326       -0.30072
C         -2.41796       -3.34218       -0.52389
C         -1.94685       -2.64377        0.72771
H         -1.59017       -3.92824       -0.94231
H         -4.01809       -4.63719       -1.25498
H         -5.06094       -2.62919       -0.15998
H         -4.87509       -2.17058        2.17952
H         -2.97500       -1.83731        3.83914
H         -0.66459       -1.05057        4.00442
N          1.13861       -1.03118        2.11283
P          1.56310        0.17484        0.89851
C          2.66539       -0.40106       -0.38312
C          2.50394        0.07669       -1.65891
C          3.39384       -0.29749       -2.64884
C          4.46157       -1.13587       -2.35596
C          4.61728       -1.59120       -1.05305
C          3.72375       -1.21689       -0.06536
H          3.84482       -1.55469        0.95156
H          5.44087       -2.24320       -0.81738
C          5.39551       -1.57591       -3.42852
H          3.26012        0.05685       -3.65655
H          1.67924        0.73439       -1.87170
C          2.40987        1.59535        1.60029
C          2.28978        2.80957        0.96577
C          2.94285        3.91683        1.47543
C          3.73022        3.80986        2.61397
C          3.84162        2.57317        3.23580
C          3.18727        1.46649        2.72575
H          3.28398        0.50337        3.19972
H          4.44231        2.48291        4.12470
C          4.40742        5.00816        3.18214
H          2.84013        4.87356        0.99251
H          1.67845        2.88897        0.08000
H          1.33066       -0.58209        2.99892
H         -1.25322       -0.95376       -2.85445
C         -0.53607        1.83186       -2.09456
C         -0.56064        3.10418       -1.57324
C          0.03920        4.14248       -2.26046
C          0.65417        3.91503       -3.48423
C          0.65744        2.62639       -4.00120
C          0.05717        1.58957       -3.31088
H          0.07081        0.58772       -3.70668
H          1.13991        2.43878       -4.94527
C          1.33249        5.02380       -4.21080
H          0.03364        5.13718       -1.84856
H         -1.06018        3.27812       -0.63303
C         -3.05378        0.70200       -1.19795
C         -3.62637        1.52988       -2.13434
C         -5.00026        1.68612       -2.16629
C         -5.80926        1.01049       -1.26266
C         -5.21117        0.18506       -0.32083
C         -3.83776        0.02599       -0.29665
H         -3.36710       -0.60841        0.43523
H         -5.82777       -0.32334        0.40044
C         -7.28572        1.20296       -1.27131
H         -5.45253        2.34096       -2.89137
H         -2.99702        2.05627       -2.83370
Cl        -2.55232        2.23049        1.22133
H          2.91154       -5.79613       -1.51488
H          1.86249       -6.10412        0.97621
H          4.32680       -5.96366        0.45910
H          0.59793       -4.18886        1.71840
H         -3.34212       -5.12183        0.28493
H         -2.65350       -2.58329       -1.27875
H         -4.33049       -3.78465        2.55464
H         -5.63177       -4.10947        0.56956
H          5.03724       -2.49147       -3.90125
H          5.49362       -0.81343       -4.20250
H          6.39127       -1.77127       -3.02808
H          4.66964        5.72078        2.39888
H          3.75821        5.51649        3.89627
H          5.32718        4.73256        3.69997
H          0.87722        5.98667       -3.97478
H          2.38795        5.07512       -3.93982
H          1.26836        4.88359       -5.29080
H         -7.57390        2.01180       -0.59855
H         -7.64533        1.45184       -2.27070
H         -7.80215        0.29735       -0.94981
