111
-148.55138077
P         -2.80980        1.72640       -0.30894
P          0.11860        0.60199        0.18283
C         -1.92702        2.13770        1.22366
C         -0.62722        1.71105        1.39422
C         -3.96116        3.08706       -0.81098
C         -3.34317        4.04802       -1.80262
C         -2.53959        2.87852        2.21478
H         -3.56256        3.19306        2.09287
C         -1.84414        3.19837        3.36817
H         -2.32324        3.77687        4.14113
C         -0.53900        2.77609        3.53147
H          0.00131        3.02237        4.43071
C          0.06930        2.02412        2.54307
H          1.07955        1.66594        2.66427
Pd        -1.18692        0.86962       -1.72353
Cl        -2.41476        1.52723       -3.47094
Cl         0.50163       -0.16300       -2.79221
C         -5.18078        2.30166       -1.32424
C         -4.01367        0.32272       -0.17147
H         -2.43334        4.50014       -1.40130
H         -3.07423        3.53803       -2.72703
H         -4.03542        4.85178       -2.06334
H         -5.03295        2.07804       -2.39003
H         -6.08827        2.92288       -1.27341
H         -3.72022       -0.40512       -0.93988
C         -5.36477        0.97397       -0.53326
C         -3.97240       -0.30340        1.20567
H         -4.22771        3.61938        0.11050
H         -5.91658        1.17840        0.39436
H         -5.99175        0.26689       -1.09693
H         -4.19956        0.43756        1.97444
H         -4.69878       -1.11412        1.29861
H         -2.98421       -0.71050        1.42664
C         -1.23553       -3.58618        1.36140
C         -0.86603       -3.32085        0.01618
C         -0.44816       -2.04203       -0.30504
C         -0.32819       -1.07050        0.65228
C         -0.55328       -1.36017        1.97248
C         -0.96552       -2.62137        2.36832
O         -1.95005       -4.76881        1.68244
C         -0.91039       -4.36446       -1.11168
H         -0.22160       -1.78109       -1.32355
H         -0.42769       -0.57660        2.69984
C         -1.10353       -2.88774        3.87604
C          4.64969        0.94610       -0.07287
C          3.83802        1.78544       -0.87868
C          2.46194        1.65183       -0.78939
C          1.89537        0.77572        0.09797
C          2.67237        0.03559        0.95043
C          4.05387        0.12674        0.91988
O          6.05352        0.89951       -0.28397
C          4.42713        2.79877       -1.87243
H          1.80874        2.21826       -1.43062
H          2.17970       -0.63147        1.63683
C          4.87628       -0.68331        1.93443
C         -1.04023       -5.80042       -0.57541
C         -2.09225       -4.05367       -2.04550
C          0.40343       -4.30065       -1.92201
C         -1.22980       -4.38687        4.19736
C          0.16003       -2.37495        4.60214
C         -2.33411       -2.13968        4.41595
C         -3.35495       -4.60263        1.58398
H         -0.24955       -6.01532        0.14258
H         -1.99424       -5.94949       -0.07527
H         -0.97419       -6.52902       -1.38307
H         -2.00090       -3.05425       -2.46995
H         -2.13502       -4.76527       -2.86955
H         -3.03922       -4.10158       -1.51131
H          1.26494       -4.43444       -1.26847
H          0.43084       -5.08338       -2.67958
H          0.51625       -3.34822       -2.43708
H         -0.40103       -4.94411        3.76203
H         -1.22830       -4.55952        5.27335
H         -2.15393       -4.79919        3.79941
H          1.05503       -2.83911        4.18877
H          0.26909       -1.29534        4.51307
H          0.11974       -2.61056        5.66530
H         -2.44443       -2.29523        5.48879
H         -2.24757       -1.06780        4.23996
H         -3.24662       -2.48251        3.93183
H         -3.69107       -3.83634        2.28057
H         -3.62594       -4.30011        0.57377
H         -3.84627       -5.54627        1.82196
C          6.46583       -0.08638       -1.22241
C          4.63408        2.11266       -3.23135
C          3.46778        3.99495       -2.06719
C          5.75935        3.37298       -1.35711
C          5.17200       -2.07450        1.35374
C          6.19048        0.03710        2.28624
C          4.09208       -0.85836        3.25544
H          3.68986        1.72636       -3.61458
H          5.03651        2.81105       -3.96459
H          5.32388        1.27626       -3.14998
H          2.55518        3.70000       -2.58292
H          3.19485        4.43337       -1.10765
H          3.93698        4.77283       -2.66916
H          5.62840        3.82194       -0.37311
H          6.51884        2.59988       -1.27217
H          6.14296        4.13854       -2.03107
H          5.73959       -2.00372        0.42907
H          5.74697       -2.67692        2.05656
H          4.24555       -2.60453        1.13357
H          6.83843        0.12802        1.41816
H          5.98960        1.04083        2.65926
H          6.74199       -0.50593        3.05335
H          3.22279       -1.50138        3.12658
H          3.75346        0.10494        3.63608
H          4.71864       -1.31851        4.01918
H          5.60098       -0.62265       -1.61510
H          7.00112        0.39121       -2.04291
H          7.14275       -0.79117       -0.73995
