171
-217.84418123
P         -1.55604        0.36684       -0.35632
P          1.59216       -0.43789       -0.36570
C         -0.86471        1.27716       -1.73869
C          0.87202       -1.43627       -1.67374
C         -0.10982        0.62158       -2.70382
C          0.47469        1.38066       -3.73533
C          0.25106        2.74706       -3.78099
C         -0.52340        3.37337       -2.82742
C         -1.07404        2.63287       -1.79997
C          1.06982       -2.79520       -1.63591
C          0.46223       -3.61297       -2.56778
C         -0.35886       -3.05958       -3.52704
C         -0.56963       -1.69199       -3.58518
C          0.07268       -0.85503       -2.65177
Cl         1.61305        0.27703        2.87976
Cl        -1.54233       -0.42934        2.89793
C         -1.48824       -1.14409       -4.62094
C          1.30024        0.73190       -4.79025
H         -0.69850        4.43530       -2.88305
H         -1.67321        3.11311       -1.04315
H          1.70127       -3.22091       -0.87331
H          0.62202       -4.67839       -2.53784
H          0.69022        3.32217       -4.57862
H         -0.85333       -3.69399       -4.24332
C         -3.93798       -3.26934       -1.60022
C         -2.92376       -3.42133       -0.66350
C         -2.20147       -2.29185       -0.29994
C         -2.47426       -1.07856       -0.88016
C         -3.46581       -0.94823       -1.82192
C         -4.22821       -2.04883       -2.19662
H         -4.53373       -4.12527       -1.85839
H         -1.42643       -2.34512        0.44466
H         -3.64429        0.02292       -2.25155
C         -4.24644        3.02167        2.16205
C         -4.82206        2.02718        1.38242
C         -3.97688        1.23342        0.61830
C         -2.62027        1.44464        0.62525
C         -2.06982        2.43826        1.39817
C         -2.87502        3.23815        2.19913
H         -4.88503        3.64022        2.76550
H         -4.37197        0.43294        0.01966
H         -1.00231        2.57247        1.38741
C          4.36455       -2.78718        2.35925
C          3.02330       -3.14713        2.29788
C          2.20125       -2.44766        1.42422
C          2.70054       -1.42014        0.66280
C          4.02566       -1.07189        0.74545
C          4.88683       -1.74683        1.59983
H          5.01588       -3.32352        3.02173
H          1.15399       -2.68860        1.35539
H          4.38920       -0.25403        0.14872
C          3.88162        3.26504       -1.60040
C          2.86687        3.37886       -0.65763
C          2.15243        2.23401       -0.33218
C          2.44547        1.03367       -0.92997
C          3.45084        0.93679       -1.86092
C          4.20070        2.05494       -2.20700
H          4.44777        4.13923       -1.85731
H          1.37260        2.27401        0.40907
H          3.66772       -0.02362       -2.29817
Pd         0.01605       -0.00484        1.32630
C         -2.44290       -5.83967       -1.14580
C         -2.65940       -4.79530       -0.03427
C         -3.86926       -5.19527        0.82797
C         -1.40327       -4.77133        0.85643
H         -1.61743       -5.54627       -1.79330
H         -2.20874       -6.81627       -0.72244
H         -3.33087       -5.95247       -1.76625
H         -4.77583       -5.26106        0.22721
H         -3.70872       -6.16387        1.30106
H         -4.04127       -4.45935        1.61326
H         -0.53189       -4.45570        0.28367
H         -1.53112       -4.09089        1.69777
H         -1.19654       -5.76119        1.26297
C         -5.26324       -2.98884       -4.29339
C         -5.40636       -1.93768       -3.17560
C         -5.47385       -0.54175       -3.82554
C         -6.71689       -2.18502       -2.40664
H         -5.28101       -4.00171       -3.89353
H         -6.07845       -2.90427       -5.01186
H         -4.32675       -2.85961       -4.83371
H         -5.63929        0.23328       -3.07759
H         -4.55314       -0.31279       -4.36129
H         -6.29511       -0.48728       -4.54001
H         -6.83734       -1.45665       -1.60561
H         -7.57941       -2.10529       -3.06806
H         -6.72833       -3.17809       -1.95852
C         -6.77855        1.43802        2.83199
C         -6.34238        1.81604        1.40488
C         -6.77234        0.68775        0.44667
C         -7.04546        3.11558        0.97150
H         -6.53936        2.22954        3.54125
H         -7.85297        1.26119        2.87820
H         -6.27185        0.53077        3.16052
H         -7.85412        0.55602        0.46371
H         -6.48342        0.91561       -0.57914
H         -6.32071       -0.26243        0.73142
H         -8.12759        2.98677        0.95572
H         -6.81826        3.93583        1.65132
H         -6.72598        3.41055       -0.02789
C         -2.76502        5.70244        2.63380
C         -2.29481        4.32066        3.12028
C         -0.75431        4.29598        3.12476
C         -2.78006        4.07962        4.56248
H         -2.36232        6.49593        3.26309
H         -2.43543        5.88232        1.61053
H         -3.85177        5.77771        2.65324
H         -0.37873        3.32146        3.43684
H         -0.35927        4.52017        2.13576
H         -0.35584        5.04123        3.81295
H         -2.35005        4.81164        5.24586
H         -3.86404        4.15407        4.63712
H         -2.48763        3.08666        4.90360
C          1.17261       -3.75557        3.88370
C          2.42838       -4.27398        3.15404
C          3.42765       -4.77309        4.21574
C          2.05257       -5.45098        2.23802
H          0.75691       -4.52165        4.53780
H          1.41470       -2.88508        4.49297
H          0.39261       -3.46291        3.18298
H          2.97305       -5.53879        4.84427
H          4.30997       -5.21334        3.75192
H          3.74720       -3.95770        4.86450
H          2.93541       -5.84422        1.73431
H          1.59758       -6.26137        2.80724
H          1.34614       -5.13884        1.47098
C          6.45415        0.19135        1.91889
C          6.36228       -1.32731        1.66897
C          7.04327       -1.67516        0.33424
C          7.10819       -2.04890        2.80805
H          6.01720        0.75994        1.09908
H          5.92615        0.46252        2.83286
H          7.49209        0.50727        2.02184
H          6.55275       -1.17104       -0.49681
H          8.09118       -1.37572        0.33899
H          6.99774       -2.74769        0.14621
H          6.63671       -1.85066        3.77048
H          7.12751       -3.12646        2.64676
H          8.14207       -1.70923        2.86894
C          3.49683        5.82955       -0.35646
C          2.53704        4.69723        0.05639
C          2.65765        4.49078        1.57872
C          1.10198        5.11951       -0.30230
H          3.25553        6.75174        0.17208
H          4.52953        5.57371       -0.11998
H          3.42626        6.03493       -1.42444
H          3.66796        4.18117        1.84514
H          2.43321        5.41137        2.11709
H          1.97252        3.72209        1.93288
H          0.81776        6.03120        0.22286
H          1.01550        5.30611       -1.37211
H          0.38587        4.34203       -0.04140
C          6.13806        3.23882       -3.36540
C          5.37671        1.91084       -3.18584
C          4.85180        1.46219       -4.55975
C          6.36155        0.85912       -2.64188
H          5.48929        4.01136       -3.77776
H          6.53933        3.59228       -2.41569
H          6.97612        3.11384       -4.05102
H          4.32794        0.50976       -4.48958
H          4.16301        2.20204       -4.96605
H          5.67025        1.34081       -5.26918
H          6.71649        1.14113       -1.65077
H          5.89075       -0.12012       -2.56639
H          7.22823        0.76052       -3.29526
H         -2.44291       -1.66910       -4.60150
H          2.03379        1.42814       -5.19691
H         -1.06467       -1.25886       -5.61970
H         -1.69399       -0.08543       -4.45846
H          0.67800        0.38942       -5.61769
H          1.84018       -0.12921       -4.39378
