105
-153.06543053
Cl        -0.18868        1.70783        3.16497
Pd        -0.62992        1.27017        1.00072
P         -1.26798        0.58982       -1.15135
N         -1.15068       -1.10291       -1.59088
C         -0.00107       -1.90567       -1.48425
C          0.28553       -2.57389       -0.26752
C          1.37408       -3.45826       -0.19012
C          1.66010       -4.13821        1.12586
C          2.64175       -5.31728        1.03056
C          3.82254       -4.98044        0.11392
C          3.33325       -4.63683       -1.30170
C          2.15883       -3.69176       -1.32177
C          1.84882       -3.04427       -2.51322
C          0.79634       -2.16845       -2.59720
H          0.56302       -1.68593       -3.52893
H          2.45652       -3.23539       -3.38144
H          4.14990       -4.20127       -1.89152
H          4.36985       -4.12468        0.52838
H          2.99654       -5.61093        2.02854
H          2.05163       -3.38700        1.82196
C         -0.63738       -2.40000        0.87803
C         -0.22207       -1.66836        2.02073
C         -1.13804       -1.49323        3.06182
C         -2.41625       -1.98052        2.96905
C         -2.83308       -2.71160        1.86330
C         -4.25243       -3.22062        1.83611
C         -4.68855       -3.75925        0.46507
C         -3.59746       -4.65063       -0.13591
C         -2.29088       -3.86485       -0.32990
C         -1.92910       -2.96117        0.82875
H         -1.45719       -4.55784       -0.50127
H         -3.93417       -5.09158       -1.08474
H         -4.88249       -2.91782       -0.21223
H         -4.92341       -2.41407        2.15867
H         -3.11578       -1.80369        3.76854
H         -0.84060       -0.91888        3.92151
N          1.04412       -1.06909        2.11071
P          1.46515        0.18329        0.93737
C          2.59703       -0.30949       -0.35459
C          3.67330       -1.10500       -0.04479
C          4.61030       -1.39700       -1.02017
C          4.47287       -0.89001       -2.30595
C          3.39568       -0.05974       -2.58594
C          2.46303        0.23309       -1.60846
H          1.62932        0.88000       -1.81829
H          3.28987        0.35548       -3.57353
C          5.48262       -1.19920       -3.35513
H          5.45632       -2.02054       -0.78706
H          3.77799       -1.48552        0.95895
C          2.31717        1.55709        1.73247
C          3.03885        1.36533        2.88615
C          3.69665        2.43291        3.46951
C          3.64713        3.69497        2.89293
C          2.92003        3.86592        1.72281
C          2.26399        2.79720        1.14022
H          1.71012        2.92498        0.22339
H          2.86817        4.84205        1.27161
C          4.32730        4.85164        3.53864
H          4.25242        2.29184        4.38077
H          3.09438        0.38281        3.32497
H          1.21568       -0.60950        2.99536
H         -1.85121       -1.33069       -0.88841
C         -0.47559        1.70560       -2.30113
C         -0.16331        2.98343       -1.90097
C          0.50224        3.82936       -2.76847
C          0.85451        3.40004       -4.04141
C          0.50031        2.11676       -4.43704
C         -0.16392        1.27158       -3.56672
H         -0.43909        0.27303       -3.86349
H          0.75145        1.78213       -5.42901
C          1.55730        4.31577       -4.98197
H          0.74989        4.83134       -2.46210
H         -0.46323        3.31872       -0.92067
C         -3.04365        0.87879       -1.12656
C         -3.61943        1.77747       -1.99225
C         -4.98667        1.98189       -1.95953
C         -5.78493        1.28232       -1.06419
C         -5.18271        0.38554       -0.19229
C         -3.81548        0.18231       -0.22607
H         -3.34795       -0.50597        0.46032
H         -5.79026       -0.14770        0.51880
C         -7.25299        1.52438       -1.00655
H         -5.44250        2.69160       -2.62858
H         -2.99720        2.31881       -2.68630
Cl        -2.41772        2.63101        1.03719
H          3.04986       -5.55606       -1.82803
H          2.11685       -6.19608        0.63551
H          4.54555       -5.80803        0.08856
H          0.71063       -4.47254        1.56294
H         -3.41500       -5.49998        0.53431
H         -2.36213       -3.27101       -1.24735
H         -4.35531       -4.00801        2.59226
H         -5.64074       -4.30315        0.54076
H          6.26955       -0.44396       -3.37019
H          5.94958       -2.16923       -3.17859
H          5.02422       -1.22856       -4.34468
H          5.21334        4.53111        4.08840
H          4.64576        5.58549        2.79695
H          3.65786        5.35088        4.24041
H          0.84113        4.89382       -5.56751
H          2.19683        5.01711       -4.44416
H          2.18836        3.75875       -5.67597
H         -7.78818        0.62575       -0.69648
H         -7.48609        2.31759       -0.29497
H         -7.64211        1.82139       -1.98144
