87
-129.18814890
P         -1.57796       -0.33768       -0.30188
P          1.64339        0.38089       -0.01341
C         -1.27859        0.93142       -1.54099
C          1.49213       -0.69939       -1.45020
C         -0.24907        0.78857       -2.46456
C         -0.01398        1.82950       -3.38460
C         -0.82347        2.95272       -3.35639
C         -1.84479        3.07103       -2.43817
C         -2.06689        2.05623       -1.52862
C          2.26169       -1.83783       -1.46168
C          2.14876       -2.74793       -2.49382
C          1.24843       -2.51629       -3.51077
C          0.45681       -1.38066       -3.51803
C          0.58664       -0.44193       -2.47586
Cl         1.14976        0.58358        3.17505
Cl        -1.44044       -1.40213        2.77702
H         -2.46173        3.95454       -2.42407
H         -2.86012        2.14291       -0.80488
H          2.95484       -2.01918       -0.65719
H          2.75472       -3.63913       -2.49831
H         -0.64007        3.74540       -4.06177
H          1.14669       -3.22853       -4.31199
C         -1.80210       -4.47407       -2.16160
C         -0.97563       -4.26623       -1.06580
C         -0.93227       -2.99795       -0.49996
C         -1.69419       -1.97650       -1.01763
C         -2.51951       -2.19239       -2.09600
C         -2.57533       -3.44886       -2.67034
H         -1.83287       -5.44940       -2.61661
C         -0.11327       -5.35743       -0.53711
H         -0.29214       -2.81073        0.34556
H         -3.10142       -1.37465       -2.49157
H         -3.21439       -3.62437       -3.52014
C         -5.31241        0.69745        2.09435
C         -5.31342       -0.40907        1.26806
C         -4.18271       -0.72706        0.53968
C         -3.06313        0.06498        0.63855
C         -3.05859        1.16540        1.46482
C         -4.18273        1.49533        2.21141
H         -6.19298        0.94845        2.66080
H         -6.19369       -1.02621        1.19255
H         -4.16654       -1.59278       -0.10173
H         -2.17310        1.77446        1.53865
C         -4.17590        2.69740        3.08873
C          5.39034       -0.65110        2.36262
C          5.33525        0.52596        1.64270
C          4.19983        0.83954        0.91969
C          3.12948       -0.02398        0.92164
C          3.18198       -1.19675        1.63974
C          4.31762       -1.53176        2.36697
H          6.26960       -0.89278        2.93516
H          6.17395        1.20272        1.64858
H          4.13993        1.75923        0.36139
H          2.32868       -1.85480        1.65159
C          4.35417       -2.78212        3.17300
C          1.41226        4.80695       -1.01126
C          2.30314        3.99752       -1.68885
C          2.38304        2.65146       -1.38319
C          1.57692        2.13133       -0.39820
C          0.70328        2.93873        0.29289
C          0.59451        4.28856       -0.01640
H          1.34525        5.85425       -1.25176
H          2.93035        4.41224       -2.46084
H          3.05836        2.00050       -1.91584
H          0.10070        2.52118        1.08110
C         -0.35952        5.15516        0.72721
Pd        -0.05673       -0.22433        1.46522
C          1.08820        1.75223       -4.38330
C         -0.51646       -1.18254       -4.62807
H          1.79385        0.95721       -4.14001
H          0.69486        1.56082       -5.38239
H          1.64767        2.68812       -4.41734
H         -1.26004       -0.42512       -4.37799
H         -0.00762       -0.86883       -5.54029
H         -1.05199       -2.10793       -4.84462
H         -0.56838       -6.33504       -0.70185
H          0.86129       -5.35146       -1.02734
H          0.04942       -5.24369        0.53569
H         -4.40251        3.59726        2.51513
H         -4.91568        2.60959        3.88557
H         -3.19982        2.83308        3.55699
H          3.92119       -2.61670        4.16050
H          3.78848       -3.57854        2.68714
H          5.37718       -3.13620        3.30766
H         -0.64442        6.02697        0.13659
H         -1.27207        4.60978        0.97334
H          0.08364        5.50824        1.65933
