171
-217.84615876
P         -1.59763        0.42411       -0.29115
P          1.59122       -0.42400       -0.28159
C         -0.85244        1.36633       -1.62613
C          0.84331       -1.37884       -1.60698
C         -0.07903        0.72916       -2.58992
C          0.56227        1.51249       -3.56889
C          0.38097        2.88573       -3.56314
C         -0.40827        3.49546       -2.61088
C         -1.01908        2.72955       -1.63783
C          1.00709       -2.74250       -1.60193
C          0.39773       -3.51898       -2.56744
C         -0.38723       -2.91929       -3.52948
C         -0.56576       -1.54586       -3.55226
C          0.07421       -0.75193       -2.58100
Cl         1.66515        0.37018        2.82917
Cl        -1.57655       -0.29074        2.93092
C         -1.42383       -0.93739       -4.60583
C          1.42495        0.89335       -4.61239
H         -0.54551        4.56433       -2.62222
H         -1.63066        3.19787       -0.88404
H          1.61554       -3.20305       -0.84083
H          0.53309       -4.58816       -2.56554
H          0.87058        3.47958       -4.31651
H         -0.87571       -3.52130       -4.27708
C         -3.91795       -3.22234       -1.60688
C         -2.92291       -3.37356       -0.64953
C         -2.21082       -2.24291       -0.27018
C         -2.47411       -1.02996       -0.85542
C         -3.44809       -0.89919       -1.81467
C         -4.19928       -2.00109       -2.20649
H         -4.50847       -4.07842       -1.87629
H         -1.45519       -2.29404        0.49427
H         -3.62735        0.07476       -2.23775
C         -4.42474        2.92851        2.23042
C         -4.93712        1.88219        1.47226
C         -4.04954        1.14672        0.70007
C         -2.71206        1.45306        0.67993
C         -2.22296        2.49083        1.43351
C         -3.07019        3.24309        2.23678
H         -5.09532        3.50738        2.83552
H         -4.40623        0.31586        0.11718
H         -1.16790        2.70423        1.40749
C          4.40978       -2.92219        2.25491
C          3.05142       -3.21905        2.27817
C          2.20704       -2.46974        1.46892
C          2.70302       -1.45098        0.69432
C          4.04416       -1.16060        0.69923
C          4.92887       -1.89455        1.47612
H          5.07817       -3.50011        2.86332
H          1.14908       -2.66920        1.45448
H          4.40607       -0.34284        0.10135
C          3.92251        3.19375       -1.65867
C          2.92555        3.36481       -0.70667
C          2.21141        2.24262       -0.30694
C          2.47369        1.01816       -0.86813
C          3.44826        0.86807       -1.82398
C          4.20228        1.96099       -2.23509
H          4.51573        4.04335       -1.94222
H          1.45438        2.31023        0.45470
H          3.62523       -0.11360       -2.22983
Pd        -0.00471        0.03211        1.36639
C         -2.44962       -5.79899       -1.10727
C         -2.67545       -4.74460       -0.00717
C         -3.90020       -5.13037        0.84038
C         -1.43184       -4.72160        0.90143
H         -1.61338       -5.51577       -1.74532
H         -2.22718       -6.77348       -0.67285
H         -3.32945       -5.91187       -1.73919
H         -3.75324       -6.09677        1.32229
H         -4.07843       -4.38785        1.61807
H         -4.79844       -5.19384        0.22696
H         -1.23447       -5.71068        1.31446
H         -0.55121       -4.41094        0.34023
H         -1.56876       -4.03788        1.73874
C         -6.68401       -2.12552       -2.44901
C         -5.36248       -1.88688       -3.20183
C         -5.20477       -2.94052       -4.31495
C         -5.41485       -0.49246       -3.85661
H         -6.80840       -1.39705       -1.64806
H         -7.53792       -2.03900       -3.12064
H         -6.70764       -3.11896       -2.00215
H         -6.00318       -2.85008       -5.05131
H         -4.25469       -2.81858       -4.83336
H         -5.23940       -3.95279       -3.91464
H         -4.48422       -0.26776       -4.37669
H         -6.22329       -0.43780       -4.58555
H         -5.59146        0.28531       -3.11414
C         -6.97317        1.65018        0.03017
C         -6.42489        1.50355        1.46179
C         -7.25079        2.40505        2.39892
C         -6.57885        0.04284        1.92701
H         -8.03162        1.39380       -0.01122
H         -6.85907        2.67492       -0.32279
H         -6.44465        0.99781       -0.66376
H         -7.18880        3.44957        2.09417
H         -8.30246        2.11914        2.38233
H         -6.90292        2.32302        3.42849
H         -7.62839       -0.24940        1.95510
H         -6.06070       -0.64394        1.25861
H         -6.16412       -0.08777        2.92627
C         -3.52162        4.92997        4.08971
C         -2.49106        4.38785        3.08019
C         -2.06702        5.53152        2.14331
C         -1.26825        3.87911        3.87043
H         -3.88065        4.13620        4.74460
H         -3.07817        5.70323        4.71695
H         -4.37735        5.37385        3.58168
H         -1.33522        5.18766        1.41440
H         -2.92526        5.91803        1.59396
H         -1.62452        6.35450        2.70426
H         -0.87286        4.65843        4.52151
H         -1.54014        3.02553        4.49096
H         -0.46311        3.56572        3.20796
C          3.49132       -4.85956        4.17462
C          2.46726       -4.34395        3.14461
C          2.05210       -5.51010        2.23201
C          1.23809       -3.81933        3.91458
H          3.04272       -5.61358        4.82131
H          4.34861       -5.32004        3.68436
H          3.84895       -4.04809        4.80825
H          1.32796       -5.18375        1.48758
H          2.91557       -5.91005        1.70073
H          1.60378       -6.31907        2.80848
H          0.84179       -4.58301        4.58341
H          1.50340       -2.94903        4.51438
H          0.43528       -3.52652        3.24013
C          7.24311       -2.43084        2.39371
C          6.42084       -1.53361        1.44930
C          6.59498       -0.06814        1.89189
C          6.95699       -1.70755        0.01618
H          7.16673       -3.47894        2.10491
H          8.29787       -2.15755        2.36530
H          6.90384       -2.32959        3.42444
H          6.18886        0.08188        2.89196
H          7.64799        0.21227        1.90839
H          6.07997        0.61474        1.21712
H          6.82854       -2.73595       -0.32085
H          6.43107       -1.05926       -0.68349
H          8.01800       -1.46415       -0.03645
C          3.89852        5.14637        0.75618
C          2.67782        4.74822       -0.09139
C          1.42842        4.74569        0.80983
C          2.46155        5.78261       -1.21228
H          4.80059        5.19567        0.14708
H          3.75156        6.12209        1.21893
H          4.06986        4.41808        1.54873
H          1.55812        4.07821        1.66129
H          1.23091        5.74310        1.20225
H          0.55040        4.42638        0.24941
H          2.23845        6.76543       -0.79740
H          3.34574        5.88208       -1.84034
H          1.62890        5.48939       -1.85053
C          6.68836        2.06387       -2.47041
C          5.36789        1.82504       -3.22492
C          5.22238        2.86471       -4.35281
C          5.41187        0.42170       -3.86108
H          6.71714        3.06267       -2.03594
H          6.80479        1.34468       -1.65993
H          7.54404        1.96301       -3.13779
H          4.27311        2.74340       -4.87286
H          5.26412        3.88209       -3.96642
H          6.02245        2.75769       -5.08514
H          5.58155       -0.34748       -3.10816
H          4.48072        0.19666       -4.38008
H          6.22144        0.35176       -4.58745
H         -1.74400        0.06784       -4.32847
H          1.73719       -0.11219       -4.32731
H         -2.32108       -1.53503       -4.76777
H         -0.88963       -0.87320       -5.55471
H          2.32681        1.48509       -4.77026
H          0.89785        0.82720       -5.56512
