111
-148.55381450
P         -1.55160        2.77773       -0.24946
P         -0.48025       -0.10300        0.47407
C         -1.69847        2.16069        1.45264
C         -1.29311        0.87665        1.74968
C         -0.32653        4.16162       -0.32326
C          0.86053        3.77682       -1.18073
C         -2.18287        2.97537        2.45614
H         -2.45951        3.99178        2.22925
C         -2.28626        2.49046        3.74858
H         -2.66877        3.12531        4.53108
C         -1.89429        1.19750        4.03856
H         -1.97021        0.82231        5.04584
C         -1.38547        0.39056        3.03680
H         -1.04261       -0.60967        3.25072
Pd        -1.16501        0.87690       -1.50262
Cl        -2.25584        1.71276       -3.27030
Cl        -0.61336       -1.05337       -2.52435
C         -1.14879        5.34349       -0.87704
C         -3.06832        3.66000       -0.84010
H          0.53805        3.51702       -2.19113
H          1.57826        4.59664       -1.26055
H          1.38357        2.90948       -0.77306
H         -0.93580        5.44664       -1.94983
H         -0.81643        6.28807       -0.42078
H         -3.15676        3.41839       -1.90725
C         -2.67785        5.13963       -0.67595
C         -4.32024        3.23518       -0.10288
H         -0.02043        4.35288        0.71353
H         -2.96808        5.47598        0.32877
H         -3.25379        5.76671       -1.37376
H         -4.48608        2.15932       -0.19432
H         -4.25018        3.46560        0.96038
H         -5.20338        3.74800       -0.49055
C         -1.02603       -4.60890        0.82473
C          0.27257       -4.04736        0.94798
C          0.40555       -2.67431        0.82495
C         -0.69083       -1.86721        0.66792
C         -1.95621       -2.39255        0.67070
C         -2.16268       -3.75757        0.79163
O         -1.18113       -6.00894        0.65687
C          1.54289       -4.87374        1.21149
H          1.38055       -2.21814        0.83559
H         -2.79047       -1.71907        0.56466
C         -3.61321       -4.25959        0.89219
C          3.80088        1.38561        0.05474
C          3.29439        0.42819       -0.86407
C          1.99181       -0.00976       -0.69941
C          1.23685        0.39630        0.36839
C          1.76133        1.22615        1.32400
C          3.05599        1.70651        1.22087
O          5.00008        2.08449       -0.23865
C          4.09638       -0.14616       -2.04303
H          1.52772       -0.64157       -1.43761
H          1.13523        1.52175        2.14819
C          3.59432        2.56674        2.37584
C          2.38922       -4.18426        2.30499
C          1.22314       -6.29080        1.71853
C          2.37148       -4.96275       -0.08045
C         -4.38876       -3.38794        1.90491
C         -4.28798       -4.15127       -0.48527
C         -3.69797       -5.71156        1.39434
C         -1.15170       -6.40571       -0.70409
H          3.25316       -4.79373        2.56895
H          2.76510       -3.21646        1.97721
H          1.79882       -4.02959        3.20765
H          2.13300       -6.82577        1.98966
H          0.57874       -6.24866        2.59593
H          0.71239       -6.87612        0.95761
H          3.29531       -5.51613        0.08607
H          1.81772       -5.46486       -0.87105
H          2.63508       -3.96924       -0.44050
H         -4.47963       -2.35714        1.56680
H         -5.39838       -3.77026        2.05319
H         -3.88599       -3.38271        2.87162
H         -5.32750       -4.47433       -0.43634
H         -4.27217       -3.12363       -0.84689
H         -3.77947       -4.76916       -1.22265
H         -3.16360       -5.82396        2.33704
H         -4.73327       -6.01309        1.55176
H         -3.25999       -6.40289        0.67841
H         -1.93993       -5.89917       -1.25836
H         -0.19177       -6.14829       -1.14798
H         -1.30066       -7.48379       -0.76786
C          4.77832        3.26342       -0.99561
C          5.60316        0.13936       -1.92316
C          3.92858       -1.68130       -2.07322
C          3.56234        0.44468       -3.35878
C          5.12280        2.73295        2.31998
C          2.92231        3.94955        2.33755
C          3.26418        1.88313        3.72129
H          5.80986        1.20427       -1.99732
H          5.98511       -0.20904       -0.96420
H          6.16180       -0.36043       -2.71417
H          4.53705       -2.12357       -2.86157
H          4.23792       -2.11874       -1.12445
H          2.89593       -1.97190       -2.25879
H          2.50392        0.21946       -3.48622
H          3.67553        1.52687       -3.37908
H          4.09750        0.03502       -4.21494
H          5.42692        3.29974        1.44338
H          5.49287        3.26147        3.19820
H          5.61337        1.76122        2.27575
H          1.84070        3.85900        2.43243
H          3.27841        4.57829        3.15315
H          3.13110        4.46382        1.40148
H          2.19088        1.82865        3.89572
H          3.70019        2.43426        4.55413
H          3.66155        0.86879        3.74448
H          5.73816        3.71540       -1.24634
H          4.24172        3.02475       -1.91241
H          4.18782        3.97343       -0.41930
