171
-217.84109566
P         -1.63033        0.77997        0.30893
P          1.45691       -0.25494       -0.33218
C         -0.89069        1.82926       -0.96127
C          0.50182       -0.94696       -1.69417
C         -0.31943        1.35397       -2.13570
C          0.31570        2.26902       -2.99652
C          0.33162        3.61380       -2.66675
C         -0.24803        4.06768       -1.50177
C         -0.84976        3.16669       -0.64494
C          0.59139       -2.28336       -1.99605
C         -0.14501       -2.81046       -3.03832
C         -0.97584       -1.98946       -3.77237
C         -1.08577       -0.63896       -3.48213
C         -0.30973       -0.10016       -2.43782
Cl         2.30497        1.12079        2.52870
Cl        -0.78223        0.77011        3.48408
C         -1.99946        0.22225       -4.28217
C          0.99366        1.82598       -4.24563
H         -0.22379        5.11639       -1.25450
H         -1.28481        3.50272        0.28494
H          1.24476       -2.91528       -1.41981
H         -0.07371       -3.85979       -3.27375
H          0.81843        4.30757       -3.33144
H         -1.54466       -2.39607       -4.59105
C         -3.05031       -3.41267       -0.67189
C         -3.67633       -2.32143       -1.25997
C         -3.18426       -1.05655       -0.96511
C         -2.11903       -0.90009       -0.11272
C         -1.52461       -1.99157        0.47699
C         -1.98350       -3.27519        0.20887
H         -3.42325       -4.39388       -0.89723
H         -3.64080       -0.17867       -1.38690
H         -0.70664       -1.84426        1.15941
C         -5.47044        2.81817        1.59747
C         -4.63693        2.30456        2.58429
C         -3.45557        1.69945        2.18217
C         -3.12303        1.61982        0.85492
C         -3.95434        2.13842       -0.10774
C         -5.15174        2.74813        0.24660
H         -6.39466        3.28602        1.88015
H         -2.77680        1.29537        2.91067
H         -3.65588        2.06653       -1.13988
C          3.81493       -3.65051        1.59035
C          4.02757       -3.31976        0.25844
C          3.29481       -2.26748       -0.27301
C          2.36636       -1.59404        0.48277
C          2.17043       -1.94249        1.79865
C          2.90245       -2.96701        2.38297
H          4.37494       -4.45398        2.03050
H          3.44818       -1.97655       -1.29740
H          1.45062       -1.40457        2.38549
C          4.54028        2.56913       -2.08665
C          4.27259        1.37003       -2.73573
C          3.31276        0.53189       -2.17977
C          2.67084        0.87746       -1.01534
C          2.94916        2.06622       -0.39127
C          3.88447        2.94391       -0.91999
H          5.29255        3.21586       -2.49699
H          3.04636       -0.39260       -2.66180
H          2.44857        2.30325        0.53022
Pd         0.34151        0.64395        1.55148
C         -5.50248       -1.18886       -2.62464
C         -4.90309       -2.53107       -2.15971
C         -5.98601       -3.29320       -1.37251
C         -4.49542       -3.34470       -3.39996
H         -5.81372       -0.58416       -1.77298
H         -4.78291       -0.61702       -3.20902
H         -6.37896       -1.35241       -3.25144
H         -6.88405       -3.42775       -1.97522
H         -5.63819       -4.28030       -1.07066
H         -6.26305       -2.74553       -0.47187
H         -3.74252       -2.81163       -3.97821
H         -4.08013       -4.31208       -3.11969
H         -5.35282       -3.52311       -4.04869
C         -1.47273       -4.26280        2.45186
C         -1.35729       -4.47843        0.93148
C          0.12265       -4.60975        0.53564
C         -2.07132       -5.79646        0.57393
H         -0.92871       -3.37394        2.76670
H         -2.51503       -4.13605        2.74374
H         -1.07109       -5.11458        2.99996
H          0.22033       -4.78261       -0.53547
H          0.67558       -3.70702        0.78534
H          0.59502       -5.44426        1.05326
H         -1.99542       -6.00735       -0.49265
H         -1.62318       -6.63492        1.10707
H         -3.12582       -5.75806        0.84663
C         -6.31389        3.08864        4.33288
C         -4.96961        2.37938        4.08116
C         -3.85960        3.16185        4.80794
C         -5.05425        0.95176        4.65255
H         -7.13427        2.55707        3.85104
H         -6.53273        3.13470        5.39965
H         -6.29447        4.11108        3.95601
H         -2.89411        2.66803        4.70447
H         -3.76619        4.16736        4.39831
H         -4.07629        3.24899        5.87239
H         -4.10609        0.42610        4.54537
H         -5.30695        0.96990        5.71250
H         -5.81780        0.37365        4.13248
C         -5.56535        3.14877       -2.23290
C         -6.11591        3.31925       -0.80273
C         -6.32583        4.82139       -0.53810
C         -7.46318        2.57990       -0.70861
H         -5.42003        2.09627       -2.47538
H         -6.25798        3.56227       -2.96582
H         -4.61302        3.66553       -2.35101
H         -6.76617        4.99369        0.44325
H         -5.37624        5.35485       -0.57732
H         -6.99029        5.25948       -1.28270
H         -8.16449        2.94991       -1.45633
H         -7.32769        1.51099       -0.87250
H         -7.91993        2.71246        0.27146
C          6.09211       -3.06895       -1.14021
C          5.02708       -4.06213       -0.63887
C          4.27465       -4.66532       -1.84024
C          5.73567       -5.20188        0.11736
H          5.64165       -2.26807       -1.72500
H          6.61893       -2.61384       -0.30177
H          6.82708       -3.56907       -1.77063
H          3.80232       -3.88996       -2.44249
H          4.95345       -5.22117       -2.48675
H          3.49448       -5.34739       -1.50251
H          5.01774       -5.93732        0.48008
H          6.43808       -5.72051       -0.53507
H          6.29827       -4.81781        0.96808
C          1.73383       -2.41662        4.57867
C          2.74541       -3.33655        3.86528
C          4.10687       -3.19022        4.57035
C          2.25519       -4.79063        3.97945
H          0.74221       -2.50045        4.13648
H          1.64619       -2.68124        5.63217
H          2.04682       -1.37399        4.52545
H          4.85021       -3.86205        4.14308
H          4.48103       -2.17122        4.47327
H          4.02274       -3.41940        5.63249
H          2.12407       -5.07763        5.02261
H          1.29911       -4.91490        3.47325
H          2.96430       -5.48395        3.52861
C          5.03995        2.10021       -5.02579
C          5.08047        0.96978       -3.97956
C          4.52167       -0.31116       -4.63077
C          6.53852        0.71145       -3.55909
H          5.60037        1.82196       -5.91822
H          4.01611        2.31417       -5.32892
H          5.47484        3.02038       -4.63829
H          5.08324       -0.56427       -5.52992
H          4.59086       -1.16144       -3.95274
H          3.47827       -0.18198       -4.91740
H          6.98727        1.60652       -3.12935
H          6.58949       -0.07918       -2.81087
H          7.14432        0.40871       -4.41299
C          4.69362        3.95106        1.22674
C          4.16903        4.26217       -0.18749
C          2.86612        5.07707       -0.08866
C          5.22088        5.11081       -0.92668
H          3.95977        3.39360        1.80760
H          5.60292        3.35262        1.17664
H          4.92130        4.86820        1.76949
H          3.03622        6.02607        0.41932
H          2.47180        5.29127       -1.08163
H          2.10081        4.53509        0.46576
H          6.17218        4.58369       -0.99642
H          4.88680        5.35818       -1.93420
H          5.40156        6.04750       -0.39945
H         -1.48830        0.62742       -5.15624
H          1.99875        2.24437       -4.30220
H         -2.37124        1.05933       -3.68899
H         -2.86369       -0.34219       -4.63493
H          0.44297        2.15632       -5.12753
H          1.08670        0.74042       -4.29081
