75
-122.81740984
P          1.87721       -0.56012       -0.00261
C          3.22457       -1.27387       -0.95809
C          4.48132       -1.29673       -0.39699
C          5.53550       -1.86203       -1.09183
C          5.32037       -2.40958       -2.34085
C          4.05488       -2.39837       -2.89287
C          3.00332       -1.83281       -2.19557
H          2.01099       -1.81960       -2.61620
H          3.88585       -2.82791       -3.86663
H          6.14071       -2.84926       -2.88436
H          6.52128       -1.87721       -0.65678
H          4.62962       -0.88183        0.58790
C          1.72483       -1.55698        1.48428
C          1.69612       -0.96937        2.72810
C          1.66829       -1.75961        3.86211
C          1.66883       -3.13512        3.74141
C          1.69231       -3.72106        2.49124
C          1.72267       -2.92729        1.35858
H          1.75934       -3.36915        0.37512
H          1.68880       -4.79446        2.39681
H          1.64336       -3.75251        4.62444
H          1.64160       -1.30171        4.83717
H          1.68862        0.10518        2.80610
C          2.22259        1.15546        0.41689
C          3.37661        1.81293        0.06002
C          3.53364        3.16385        0.33595
C          2.49782        3.84022        0.97908
C          1.33004        3.19720        1.32505
C          1.18659        1.82838        1.04746
O          0.00265        1.13991        1.36093
C         -1.19474        1.81537        1.07112
C         -1.34968        3.18112        1.35756
C         -2.53365        3.80999        1.04192
C         -3.57963        3.11998        0.43068
C         -3.40340        1.77738        0.12674
C         -2.23254        1.13397        0.45271
P         -1.86934       -0.56739       -0.00894
C         -1.70978       -1.59555        1.45692
C         -1.64587       -1.03019        2.70969
C         -1.61226       -1.84025        3.82945
C         -1.64086       -3.21321        3.68555
C         -1.69828       -3.77696        2.42632
C         -1.73513       -2.96333        1.30807
H         -1.79862       -3.38746        0.31824
H         -1.71698       -4.84845        2.31375
H         -1.61051       -3.84607        4.55741
H         -1.55797       -1.39979        4.81138
H         -1.61407        0.04248        2.80538
C         -3.21098       -1.26619       -0.98505
C         -4.45897       -1.34872       -0.41009
C         -5.50978       -1.89978       -1.12125
C         -5.30014       -2.37223       -2.40148
C         -4.04360       -2.29944       -2.96904
C         -2.99539       -1.74821       -2.25549
H         -2.01072       -1.68540       -2.68922
H         -3.87910       -2.66945       -3.96770
H         -6.11789       -2.80072       -2.95768
H         -6.48864       -1.96201       -0.67493
H         -4.60294       -0.99013        0.59731
Pd         0.01013       -0.07767       -1.36437
Cl        -1.57172        0.94723       -2.62571
Cl         1.52302        0.77663       -2.80951
H         -4.17780        1.24146       -0.39296
C         -4.83374        3.82243        0.05001
H         -5.69135        3.15040        0.10226
H         -4.76735        4.20505       -0.96919
H         -5.03121        4.66457        0.71444
H         -2.64315        4.85756        1.26056
S         -0.00581        4.06079        2.10906
H          2.60269        4.88752        1.20114
C          4.79164        3.86731       -0.03089
H          4.15390        1.28038       -0.45871
H          5.55665        3.71583        0.73165
H          5.18326        3.49844       -0.97982
H          4.62778        4.94055       -0.13553
