111
-148.55889221
P         -2.59243        1.94780        1.04725
P          0.15891        0.46751        0.46615
C         -1.46302        1.56964        2.41400
C         -0.24946        0.97127        2.15016
C         -3.47019        3.55829        1.29143
C         -2.92272        4.62583        0.36934
C         -1.81657        1.86504        3.71498
H         -2.77508        2.31399        3.91790
C         -0.94644        1.56746        4.74971
H         -1.22185        1.79750        5.76601
C          0.27215        0.97365        4.48214
H          0.94830        0.73958        5.28788
C          0.61967        0.67052        3.17805
H          1.55977        0.19165        2.95360
Pd        -1.34520        1.63053       -0.86109
Cl        -3.10550        2.33798       -2.05781
Cl        -0.00409        1.24377       -2.62070
C         -4.94395        3.18706        1.04006
C         -4.03569        0.79565        0.93880
H         -3.04024        4.33278       -0.67506
H         -3.44342        5.57660        0.50542
H         -1.85728        4.79351        0.54445
H         -5.18254        3.38829       -0.01343
H         -5.60973        3.84080        1.62382
H         -4.12159        0.51552       -0.11976
C         -5.21993        1.68852        1.35356
C         -3.83346       -0.42931        1.80366
H         -3.32047        3.84097        2.34113
H         -5.39482        1.56580        2.43133
H         -6.14525        1.34863        0.86394
H         -2.95553       -0.99525        1.48584
H         -3.68111       -0.14667        2.84694
H         -4.69826       -1.09551        1.76186
C         -1.20275       -3.82670       -0.21739
C         -0.97287       -3.36566        1.10632
C         -0.54108       -2.06144        1.28006
C         -0.40494       -1.21320        0.21290
C         -0.73165       -1.62097       -1.05244
C         -1.18460       -2.90492       -1.29797
O         -1.36599       -5.21280       -0.47100
C         -1.17657       -4.22759        2.36356
H         -0.29653       -1.69437        2.26180
H         -0.61918       -0.91540       -1.85784
C         -1.66610       -3.23225       -2.72109
C          4.59765        0.64523       -0.51968
C          4.05748       -0.49074        0.13583
C          2.69923       -0.50598        0.40515
C          1.90854        0.57635        0.11954
C          2.44474        1.71875       -0.41266
C          3.79433        1.79817       -0.71552
O          5.92935        0.61430       -1.01268
C          4.90558       -1.71266        0.52234
H          2.23192       -1.37851        0.82880
H          1.78399        2.54442       -0.61292
C          4.35272        3.10666       -1.29631
C         -1.96483       -3.42223        3.42043
C         -1.98855       -5.50222        2.07546
C          0.19524       -4.61137        2.94284
C         -2.59763       -2.10216       -3.21535
C         -0.45398       -3.33259       -3.66160
C         -2.47363       -4.54022       -2.77881
C         -0.13685       -5.86991       -0.73175
H         -2.91954       -3.08841        3.01555
H         -2.16983       -4.03288        4.29937
H         -1.41541       -2.54475        3.75716
H         -2.20327       -6.04745        2.99425
H         -2.93562       -5.25443        1.59737
H         -1.44678       -6.17381        1.41375
H          0.77399       -3.72315        3.19483
H          0.08297       -5.20698        3.84841
H          0.77470       -5.19300        2.22825
H         -3.01861       -2.34397       -4.19077
H         -3.42326       -1.95262       -2.52016
H         -2.06916       -1.15574       -3.31680
H         -0.77049       -3.53849       -4.68373
H          0.11243       -2.40183       -3.66712
H          0.21952       -4.12943       -3.35191
H         -3.29990       -4.51306       -2.06928
H         -2.88501       -4.70441       -3.77447
H         -1.85216       -5.39829       -2.53385
H          0.52457       -5.78047        0.12860
H         -0.32802       -6.92448       -0.93136
H          0.35060       -5.42217       -1.59628
C          6.04429        0.11509       -2.33948
C          6.34842       -1.30124        0.86676
C          4.32373       -2.40480        1.77673
C          4.90236       -2.72072       -0.63699
C          4.23714        3.06920       -2.82789
C          3.55395        4.32212       -0.77313
C          5.81858        3.32079       -0.87762
H          6.85606       -0.87379        0.00582
H          6.35532       -0.55636        1.66179
H          6.93160       -2.15916        1.20047
H          4.99187       -3.18990        2.13008
H          4.19025       -1.68912        2.58758
H          3.36247       -2.87345        1.57068
H          5.32330       -2.28528       -1.53998
H          5.48623       -3.60600       -0.38633
H          3.88594       -3.04027       -0.86635
H          3.19821        2.94314       -3.13190
H          4.60968        3.99243       -3.27082
H          4.80569        2.24233       -3.24629
H          3.50449        4.31418        0.31540
H          4.02534        5.25556       -1.07990
H          2.53757        4.33507       -1.16383
H          6.46431        2.54446       -1.28011
H          5.91373        3.30482        0.20758
H          6.19277        4.27905       -1.23706
H          6.50073        0.87223       -2.97684
H          6.68625       -0.76560       -2.34533
H          5.06164       -0.14784       -2.73321
