171
-217.83767954
P         -1.66214        0.76191        0.17978
P          1.51791       -0.26051       -0.27268
C         -0.83487        1.83998       -1.01022
C          0.63006       -0.92589       -1.69225
C         -0.16414        1.38551       -2.13959
C          0.54247        2.31404       -2.92714
C          0.53216        3.65216       -2.57156
C         -0.14180        4.08564       -1.45020
C         -0.81760        3.17100       -0.66566
C          0.71422       -2.26082       -2.00165
C          0.01948       -2.76879       -3.08160
C         -0.76081       -1.92969       -3.85017
C         -0.85918       -0.57857       -3.55739
C         -0.13479       -0.06280       -2.46623
Cl         2.09659        1.19897        2.64576
Cl        -0.98192        0.48597        3.42033
C         -1.70921        0.31497       -4.39224
C          1.33012        1.89185       -4.11817
H         -0.13203        5.12874       -1.17934
H         -1.32699        3.49059        0.23160
H          1.32693       -2.90796       -1.39842
H          0.08342       -3.81807       -3.31935
H          1.07345        4.35644       -3.18064
H         -1.30093       -2.32417       -4.69394
C         -3.01421       -3.44352       -0.85219
C         -1.97756       -3.29335        0.06215
C         -1.53502       -2.00576        0.33677
C         -2.11296       -0.91969       -0.27915
C         -3.14566       -1.08917       -1.16806
C         -3.61950       -2.35793       -1.47423
H         -3.37479       -4.43023       -1.06918
H         -0.74741       -1.85220        1.05256
H         -3.60883       -0.22098       -1.60417
C         -5.54153        2.76623        1.38578
C         -4.71946        2.26394        2.38801
C         -3.52727        1.66676        2.00670
C         -3.17276        1.58777        0.68533
C         -3.99210        2.09465       -0.29320
C         -5.20263        2.69057        0.03996
H         -6.47303        3.22922        1.65211
H         -2.86089        1.25940        2.74534
H         -3.67502        2.02275       -1.31976
C          3.74379       -3.68316        1.75522
C          4.01217       -3.36800        0.42956
C          3.32037       -2.30656       -0.13761
C          2.38068       -1.60633        0.57893
C          2.13190       -1.93764        1.89041
C          2.81613       -2.97547        2.50778
H          4.27069       -4.49385        2.22220
H          3.51393       -2.03167       -1.15951
H          1.40538       -1.37829        2.44805
C          4.59970        2.68568       -1.80210
C          3.81310        3.04959       -0.71665
C          2.88814        2.12670       -0.24781
C          2.74638        0.90687       -0.85886
C          3.51336        0.57432       -1.94877
C          4.46728        1.45840       -2.43950
H          5.34589        3.37460       -2.15240
H          2.27754        2.34838        0.60821
H          3.34510       -0.37276       -2.43045
Pd         0.23716        0.58024        1.53326
C         -1.56423       -4.25979        2.33413
C         -1.37312       -4.48465        0.82258
C          0.12618       -4.60063        0.50101
C         -2.05280       -5.81365        0.43998
H         -1.18158       -5.10389        2.90710
H         -1.04435       -3.36357        2.66879
H         -2.62057       -4.14120        2.57431
H          0.27873       -4.77743       -0.56302
H          0.65618       -3.69066        0.77354
H          0.58175       -5.42714        1.04585
H         -3.11844       -5.78943        0.66712
H         -1.92815       -6.02688       -0.62155
H         -1.61649       -6.64390        0.99533
C         -5.17098       -3.98206       -2.67520
C         -4.84068       -2.50360       -2.39446
C         -4.56668       -1.80649       -3.73851
C         -6.05580       -1.84577       -1.71412
H         -4.32608       -4.48961       -3.14053
H         -5.42984       -4.50916       -1.75717
H         -6.02133       -4.06624       -3.35184
H         -3.69497       -2.24218       -4.22485
H         -5.41606       -1.91274       -4.41313
H         -4.38443       -0.74151       -3.60248
H         -5.87941       -0.78584       -1.53341
H         -6.94772       -1.93587       -2.33385
H         -6.26154       -2.31763       -0.75355
C         -5.16929        0.90710        4.44637
C         -5.07882        2.33590        3.87875
C         -6.42934        3.04105        4.10737
C         -3.98414        3.12024        4.62641
H         -4.21779        0.38449        4.35503
H         -5.44066        0.92277        5.50173
H         -5.92176        0.32753        3.91200
H         -6.66636        3.08686        5.17026
H         -6.40670        4.06334        3.73027
H         -7.23984        2.50671        3.61205
H         -4.22021        3.20530        5.68690
H         -3.01572        2.62889        4.53980
H         -3.88599        4.12659        4.21993
C         -7.51524        2.52461       -0.91704
C         -6.15807        3.24421       -1.02656
C         -5.60752        3.02646       -2.45027
C         -6.34950        4.75497       -0.80176
H         -8.20824        2.88103       -1.67898
H         -7.39250        1.44975       -1.04888
H         -7.97589        2.69177        0.05582
H         -4.65415        3.53706       -2.58525
H         -5.46466        1.96598       -2.65782
H         -6.29893        3.41792       -3.19634
H         -7.01074        5.18110       -1.55609
H         -6.78474        4.95756        0.17614
H         -5.39378        5.27592       -0.85703
C          6.13835       -3.17242       -0.88260
C          5.02975       -4.13787       -0.42327
C          4.31380       -4.72846       -1.65294
C          5.67867       -5.29128        0.36522
H          5.73199       -2.36140       -1.48549
H          6.64247       -2.72904       -0.02415
H          6.88524       -3.69195       -1.48259
H          3.88730       -3.94501       -2.27841
H          5.00509       -5.30478       -2.26750
H          3.50304       -5.38891       -1.34565
H          6.21654       -4.91734        1.23620
H          4.92846       -6.00665        0.70183
H          6.39324       -5.83052       -0.25656
C          3.91654       -3.19186        4.74933
C          2.58853       -3.33579        3.98315
C          2.08603       -4.78701        4.08246
C          1.54789       -2.40845        4.64329
H          4.67621       -3.86708        4.35748
H          4.29820       -2.17436        4.66698
H          3.78326       -3.41814        5.80706
H          2.81303       -5.48711        3.67253
H          1.90167       -5.06608        5.11971
H          1.15567       -4.91021        3.53006
H          1.86976       -1.36786        4.60612
H          0.57980       -2.48627        4.15046
H          1.40455       -2.67155        5.69104
C          3.76616        5.52530       -1.11688
C          3.99072        4.42626       -0.06207
C          5.41556        4.53476        0.50956
C          2.98380        4.64233        1.08551
H          2.76643        5.44969       -1.54338
H          3.87010        6.51638       -0.67563
H          4.48456        5.44667       -1.93190
H          5.59488        3.75019        1.24446
H          6.16490        4.43586       -0.27498
H          5.56802        5.49693        0.99816
H          3.10792        5.63015        1.52872
H          1.95778        4.56806        0.72573
H          3.12598        3.90668        1.87683
C          5.42922        2.21220       -4.64781
C          5.40213        1.08333       -3.59900
C          4.94386       -0.21162       -4.29945
C          6.81896        0.86718       -3.03872
H          4.43126        2.40275       -5.04036
H          5.80847        3.14211       -4.22675
H          6.07218        1.94582       -5.48660
H          4.98200       -1.06331       -3.62096
H          3.92517       -0.11415       -4.67430
H          5.58892       -0.44168       -5.14731
H          7.19464        1.77358       -2.56476
H          6.82052        0.07439       -2.29084
H          7.51450        0.58767       -3.82984
H         -2.41074       -0.25594       -5.00165
H          0.88063        2.26769       -5.03840
H         -1.09970        0.91473       -5.06858
H         -2.28815        0.99699       -3.76723
H          1.39917        0.80602       -4.19257
H          2.34647        2.28203       -4.05990
