111
-148.55008295
P         -2.70904        1.92966       -0.31150
P          0.04661        0.53012        0.32663
C         -1.94466        2.15429        1.31878
C         -0.70909        1.59666        1.56570
C         -3.62277        3.45526       -0.83063
C         -2.82871        4.30779       -1.79584
C         -2.58141        2.87531        2.30916
H         -3.55761        3.29157        2.12355
C         -1.97093        3.04350        3.54020
H         -2.46790        3.60644        4.31337
C         -0.72803        2.48975        3.78071
H         -0.25475        2.61848        4.74018
C         -0.09678        1.75820        2.79090
H          0.86326        1.29860        2.96753
Pd        -1.09276        0.95172       -1.65194
Cl        -2.17648        1.67251       -3.46968
Cl         0.62936       -0.08072       -2.67061
C         -4.93604        2.88092       -1.39067
C         -4.09140        0.69640       -0.34657
H         -2.61731        3.76298       -2.71563
H         -3.37485        5.21299       -2.07086
H         -1.87058        4.60675       -1.36451
H         -4.80640        2.68667       -2.46441
H         -5.74352        3.62559       -1.31878
H         -3.87244        0.01922       -1.18308
C         -5.32694        1.56014       -0.66704
C         -4.17832       -0.06973        0.95548
H         -3.82519        4.01813        0.08922
H         -5.84415        1.79866        0.27238
H         -6.05149        0.98582       -1.26390
H         -4.32734        0.61056        1.79605
H         -5.01026       -0.77781        0.94834
H         -3.26064       -0.62975        1.14604
C         -1.20139       -3.77643        1.14745
C         -0.58572       -3.43868       -0.08461
C         -0.23844       -2.11714       -0.30016
C         -0.41009       -1.16920        0.67239
C         -0.90061       -1.51247        1.90482
C         -1.27394       -2.81530        2.18811
O         -1.77907       -5.06175        1.32445
C         -0.32515       -4.46715       -1.19555
H          0.15982       -1.79790       -1.24664
H         -1.00233       -0.73958        2.64568
C         -1.77938       -3.15742        3.59838
C          4.57114        0.97190        0.06700
C          3.73166        1.94800       -0.53362
C          2.35973        1.80755       -0.39756
C          1.82155        0.71182        0.22425
C          2.62401       -0.29546        0.69335
C          4.00301       -0.21828        0.59361
O          5.96106        1.21816        0.20826
C          4.25618        3.13264       -1.36259
H          1.69050        2.55562       -0.78855
H          2.15717       -1.15762        1.13868
C          4.82505       -1.44329        1.02869
C         -0.04577       -5.86177       -0.60703
C         -1.54090       -4.51911       -2.13309
C          0.91911       -4.07049       -2.02308
C         -3.30002       -2.94726        3.65974
C         -1.42799       -4.60782        3.97638
C         -1.11360       -2.24365        4.65265
C         -3.14292       -5.14131        0.92925
H         -0.90987       -6.24716       -0.07170
H          0.20108       -6.57614       -1.39201
H          0.78963       -5.82282        0.09130
H         -1.72629       -3.54121       -2.57704
H         -1.38060       -5.23201       -2.94143
H         -2.43976       -4.81471       -1.59729
H          0.74626       -3.16678       -2.60540
H          1.77778       -3.90118       -1.37428
H          1.18249       -4.85876       -2.72784
H         -3.81473       -3.57500        2.93632
H         -3.68742       -3.18680        4.64967
H         -3.55517       -1.91086        3.44039
H         -0.35494       -4.77682        3.89259
H         -1.72761       -4.82968        5.00033
H         -1.92937       -5.32004        3.32586
H         -1.36856       -2.56761        5.66144
H         -0.02832       -2.26871        4.55732
H         -1.44304       -1.21003        4.55691
H         -3.48966       -4.17493        0.56078
H         -3.25355       -5.89013        0.14514
H         -3.75279       -5.44626        1.77948
C          6.27941        1.88893        1.41584
C          3.44721        3.23538       -2.67512
C          4.08743        4.43362       -0.56134
C          5.73316        2.96085       -1.75811
C          4.82270       -1.54242        2.56279
C          4.19035       -2.72216        0.43713
C          6.27557       -1.38429        0.51929
H          3.85301        4.01230       -3.32246
H          3.47867        2.29235       -3.22011
H          2.40294        3.48088       -2.49002
H          3.04233        4.59767       -0.30055
H          4.65979        4.40209        0.36390
H          4.42853        5.29303       -1.13798
H          6.05742        3.75996       -2.42429
H          6.37966        2.97875       -0.88382
H          5.88614        2.00988       -2.26716
H          3.80602       -1.62411        2.94617
H          5.37888       -2.41780        2.89720
H          5.27843       -0.66293        3.01388
H          4.79936       -3.59767        0.66070
H          3.19691       -2.90736        0.84232
H          4.10307       -2.64088       -0.64596
H          6.81917       -0.55912        0.97342
H          6.29774       -1.24445       -0.56091
H          6.81283       -2.30259        0.75511
H          5.96420        1.29083        2.26943
H          7.35675        2.04830        1.46532
H          5.77086        2.85101        1.45381
