111
-148.55311018
P         -2.65819        1.88081        0.01259
P          0.14324        0.45475        0.41981
C         -1.84206        1.93928        1.63221
C         -0.59969        1.36318        1.78852
C         -3.57669        3.44717       -0.34615
C         -2.82438        4.32830       -1.31933
C         -2.45568        2.55080        2.70690
H         -3.43618        2.98144        2.58741
C         -1.81599        2.59219        3.93384
H         -2.29441        3.07027        4.77302
C         -0.56765        2.01966        4.08530
H         -0.07113        2.04951        5.04120
C          0.04037        1.39769        3.00971
H          1.00636        0.92878        3.11486
Pd        -1.05161        1.09953       -1.45153
Cl        -2.47986        1.63518       -3.09852
Cl         0.56595        0.29824       -2.78670
C         -4.93588        2.93156       -0.85373
C         -4.04083        0.65395       -0.09290
H         -3.37037        5.25167       -1.52608
H         -1.83860        4.59591       -0.93154
H         -2.67315        3.81685       -2.27053
H         -4.89168        2.84131       -1.94793
H         -5.72751        3.66839       -0.64887
H         -3.87183        0.08595       -1.01766
C         -5.28748        1.54797       -0.23452
C         -4.05683       -0.26780        1.10739
H         -3.70244        3.96102        0.61519
H         -5.73173        1.69476        0.75955
H         -6.05934        1.03665       -0.82957
H         -3.13086       -0.84206        1.17668
H         -4.15831        0.30247        2.03257
H         -4.88877       -0.97419        1.05841
C         -1.35632       -3.83992        0.61979
C         -0.84632       -3.32703       -0.60009
C         -0.38262       -2.02399       -0.61642
C         -0.34881       -1.26619        0.52404
C         -0.73621       -1.79509        1.72714
C         -1.20774       -3.09417        1.81757
O         -2.05780       -5.07473        0.63326
C         -0.85132       -4.12955       -1.90989
H         -0.06880       -1.56281       -1.53625
H         -0.69384       -1.16468        2.59778
C         -1.59698       -3.65102        3.19573
C          4.64808        1.02823        0.07938
C          3.81784        2.13182        0.40239
C          2.45509        1.91430        0.52734
C          1.91175        0.67920        0.28656
C          2.69696       -0.36438       -0.12757
C          4.06501       -0.21339       -0.28056
O          6.06137        1.15744        0.14134
C          4.37668        3.54450        0.63513
H          1.79323        2.71132        0.82007
H          2.22089       -1.30611       -0.33720
C          4.89182       -1.38771       -0.82749
C         -2.16415       -3.85966       -2.66105
C          0.32890       -3.70591       -2.81378
C         -0.69041       -5.63659       -1.64119
C         -0.71348       -3.03042        4.30189
C         -3.06460       -3.30360        3.48910
C         -1.38879       -5.17502        3.25904
C         -3.45786       -4.94461        0.41817
H         -2.19480       -4.40639       -3.60308
H         -3.02583       -4.15989       -2.06955
H         -2.26886       -2.79783       -2.88335
H          1.27259       -3.77522       -2.27442
H          0.39645       -4.35130       -3.68919
H          0.21542       -2.68600       -3.17775
H         -1.52964       -6.03102       -1.07404
H         -0.63104       -6.19675       -2.57402
H          0.21778       -5.82953       -1.07112
H         -0.89772       -3.51423        5.26086
H          0.34356       -3.14848        4.06491
H         -0.91876       -1.96931        4.43526
H         -3.36908       -3.68625        4.46290
H         -3.21234       -2.22392        3.49063
H         -3.72818       -3.72727        2.73905
H         -2.03997       -5.69429        2.56049
H         -0.35971       -5.43220        3.01039
H         -1.60311       -5.55879        4.25617
H         -3.72687       -3.89595        0.28471
H         -3.74606       -5.50877       -0.46866
H         -3.99892       -5.35260        1.27177
C          6.62050        0.83580        1.40856
C          5.61270        3.80338       -0.24565
C          3.32716        4.61599        0.26163
C          4.73845        3.71018        2.11884
C          5.38776       -2.25290        0.34069
C          4.03212       -2.26971       -1.76167
C          6.08439       -0.88162       -1.65905
H          5.96906        4.82669       -0.13031
H          6.43251        3.13882        0.01527
H          5.37462        3.64313       -1.29666
H          3.76243        5.61426        0.30190
H          2.95202        4.45515       -0.74875
H          2.48158        4.60872        0.94781
H          3.86170        3.55874        2.74816
H          5.49256        2.98879        2.42387
H          5.12800        4.70846        2.31671
H          4.54777       -2.63634        0.91951
H          5.96474       -3.10351       -0.02131
H          6.02041       -1.68096        1.01487
H          4.64600       -3.01834       -2.26188
H          3.26224       -2.80555       -1.20879
H          3.54816       -1.66570       -2.52888
H          6.78119       -0.31320       -1.04795
H          5.74157       -0.23367       -2.46506
H          6.63472       -1.71171       -2.10121
H          7.14344        1.70424        1.80863
H          5.83784        0.52974        2.10388
H          7.34305        0.02794        1.29419
