59
-75.79841654
Cl         1.54451        0.78053        2.27247
P          1.56404        0.08819       -0.78134
P         -1.63954       -0.22035       -0.78856
C          0.55942        0.47839       -2.28338
H          0.25686        1.52666       -2.23504
H          1.19740        0.36447       -3.16516
C         -0.64036       -0.42579       -2.32943
H         -0.32672       -1.47121       -2.38875
H         -1.28190       -0.22644       -3.19334
C          2.49718       -1.48226       -1.09892
H          2.27529       -1.72162       -2.14757
C          2.98663        1.25161       -0.57095
H          3.12021        1.38420        0.50938
C         -2.72719       -1.67096       -0.41717
H         -2.65621       -1.83422        0.66534
C         -2.92223        1.10631       -0.96697
H         -2.92162        1.38961       -2.02641
C          3.97607       -1.07059       -0.96511
H          4.34768       -1.35555        0.02620
H          4.59515       -1.63485       -1.67878
C          4.16805        0.45912       -1.15716
H          4.25063        0.68815       -2.22867
H          5.11560        0.79496       -0.70874
C         -4.12704       -1.15340       -0.78770
H         -4.33340       -1.40832       -1.83646
H         -4.89716       -1.67504       -0.19893
C         -4.23254        0.38375       -0.59660
H         -4.46786        0.60116        0.45445
H         -5.07330        0.79444       -1.17606
C          2.04310       -2.63004       -0.19606
H          2.48661       -3.56880       -0.55651
H          0.95916       -2.75733       -0.31969
C          2.73097        2.59967       -1.23296
H          2.58221        2.44509       -2.30965
H          1.77982        3.00636       -0.86357
C         -2.30140       -2.92899       -1.16418
H         -2.35979       -2.73760       -2.24369
H         -1.24077       -3.12731       -0.96042
C         -2.64572        2.32716       -0.09396
H         -3.52905        2.98081       -0.11026
H         -2.55042        1.99970        0.94945
C          2.36643       -2.45329        1.28195
H          1.88677       -3.21777        1.89771
H          2.03350       -1.48395        1.65088
H          3.43791       -2.51763        1.47630
C          3.85170        3.60044       -0.99413
H          4.00016        3.77687        0.07289
H          3.64573        4.56606       -1.46160
H          4.79989        3.23812       -1.39528
C         -3.13653       -4.14735       -0.79960
H         -3.07545       -4.36050        0.26931
H         -2.80969       -5.04305       -1.33280
H         -4.19052       -3.99188       -1.03665
C         -1.41461        3.11508       -0.51104
H         -1.27519        4.00992        0.09986
H         -0.50944        2.51642       -0.41318
H         -1.48274        3.43480       -1.55252
Cl        -1.72413        0.04703        2.37767
Pd        -0.07055        0.10459        0.86681
