111
-148.55557782
P         -2.59166        2.04128        0.77641
P          0.15457        0.44260        0.46614
C         -1.49101        1.83462        2.20323
C         -0.28959        1.17379        2.05642
C         -3.44549        3.68235        0.77145
C         -2.87071        4.59290       -0.29163
C         -1.86320        2.31890        3.44080
H         -2.81277        2.81576        3.55487
C         -1.02449        2.14809        4.52874
H         -1.31452        2.52668        5.49528
C          0.18036        1.48896        4.37846
H          0.83164        1.35234        5.22602
C          0.54603        0.99522        3.13917
H          1.47457        0.46135        3.00937
Pd        -1.31066        1.42434       -1.02976
Cl        -3.02854        1.96614       -2.36858
Cl         0.04247        0.77532       -2.70503
C         -4.92259        3.30005        0.55805
C         -4.05159        0.90584        0.80610
H         -2.98059        4.14874       -1.28223
H         -3.37800        5.56043       -0.30593
H         -1.80486        4.77012       -0.12880
H         -5.14802        3.35372       -0.51600
H         -5.58354        4.03921        1.03575
H         -4.12901        0.48407       -0.20507
C         -5.22565        1.86493        1.07660
C         -3.87984       -0.19163        1.83391
H         -3.30170        4.11451        1.76981
H         -5.41322        1.89805        2.15871
H         -6.15127        1.47254        0.62850
H         -3.00734       -0.80877        1.60981
H         -3.73607        0.22968        2.83057
H         -4.75468       -0.84484        1.87163
C         -1.16975       -3.91421        0.30650
C         -1.02133       -3.27376        1.56387
C         -0.59320       -1.95681        1.58385
C         -0.39087       -1.26325        0.41991
C         -0.63993       -1.84561       -0.79425
C         -1.06534       -3.15792       -0.88840
O         -1.38620       -5.31653        0.24495
C         -1.29172       -3.99443        2.89395
H         -0.40892       -1.45193        2.51549
H         -0.48995       -1.25048       -1.67783
C         -1.37749       -3.73751       -2.27641
C          4.54213        0.83299       -0.70133
C          3.79003       -0.29878       -1.11198
C          2.45974       -0.36898       -0.73665
C          1.89181        0.58745        0.06321
C          2.64278        1.62381        0.55376
C          3.98537        1.74771        0.23284
O          5.81035        1.09098       -1.28205
C          4.35410       -1.45459       -1.95516
H          1.84086       -1.17649       -1.08737
H          2.16530        2.34554        1.19444
C          4.79278        2.85590        0.93064
C         -0.00379       -4.68252        3.37054
C         -1.74450       -2.99118        3.97950
C         -2.42123       -5.02927        2.74131
C         -1.91178       -2.63302       -3.21804
C         -0.09152       -4.31959       -2.88294
C         -2.46713       -4.82156       -2.19454
C         -0.19071       -6.08283        0.16741
H         -0.16165       -5.19120        4.32123
H          0.33959       -5.41951        2.64865
H          0.79489       -3.95355        3.50587
H         -2.05007       -3.51424        4.88538
H         -0.94278       -2.30964        4.25990
H         -2.59236       -2.40089        3.63361
H         -2.65764       -5.49542        3.69749
H         -3.32613       -4.55607        2.36142
H         -2.14297       -5.82066        2.04965
H         -1.14124       -1.90469       -3.46602
H         -2.26025       -3.06065       -4.15773
H         -2.74745       -2.10400       -2.76062
H          0.67092       -3.54729       -2.98240
H          0.31764       -5.10914       -2.25695
H         -0.28007       -4.73649       -3.87186
H         -3.36751       -4.42518       -1.72633
H         -2.73275       -5.18611       -3.18650
H         -2.13544       -5.67498       -1.60869
H         -0.15594       -6.78874        0.99712
H         -0.17805       -6.65026       -0.76292
H          0.68285       -5.43080        0.20710
C          5.72569        1.88844       -2.45139
C          5.89176       -1.45319       -1.99756
C          3.92007       -2.80306       -1.33727
C          3.79800       -1.35646       -3.38572
C          4.47689        2.84432        2.44310
C          6.31128        2.65159        0.78876
C          4.40108        4.22255        0.34542
H          6.27128       -0.57460       -2.51369
H          6.30390       -1.45202       -0.98910
H          6.27120       -2.33126       -2.51965
H          4.36992       -3.63832       -1.87342
H          4.23120       -2.86602       -0.29495
H          2.84060       -2.93935       -1.37502
H          4.09847       -0.42482       -3.86115
H          4.15825       -2.17993       -4.00170
H          2.70888       -1.38991       -3.38321
H          4.67208        1.86043        2.86880
H          5.09378        3.56868        2.97435
H          3.43684        3.09702        2.64230
H          6.62717        2.74719       -0.24734
H          6.86318        3.38942        1.37063
H          6.59959        1.65986        1.13552
H          3.33470        4.40823        0.46968
H          4.62503        4.27429       -0.71826
H          4.94201        5.02789        0.84168
H          5.27871        2.85252       -2.21501
H          6.72680        2.04405       -2.85402
H          5.10969        1.39107       -3.19880
