105
-153.06840342
Cl         0.54963        1.94009        3.06260
Pd        -0.33060        1.42666        1.05104
P         -1.21032        0.75601       -0.98826
N         -0.19493       -0.35274       -1.89319
C          0.31844       -1.62152       -1.66149
C          0.22547       -2.30652       -0.42475
C          0.90213       -3.53176       -0.25586
C          0.79952       -4.23359        1.07859
C          1.31255       -5.68245        1.08215
C          2.61564       -5.80859        0.28741
C          2.40474       -5.37135       -1.16987
C          1.64240       -4.07798       -1.30605
C          1.67892       -3.41505       -2.52536
C          1.03383       -2.21840       -2.69975
H          1.10348       -1.70331       -3.64212
H          2.24308       -3.84477       -3.33580
H          3.37134       -5.26862       -1.67969
H          3.38454       -5.17724        0.75008
H          1.44813       -6.04594        2.11056
H          1.35296       -3.64476        1.81953
C         -0.69523       -1.87156        0.65231
C         -0.17710       -1.29093        1.84428
C         -1.04527       -1.11303        2.92676
C         -2.36713       -1.46645        2.83740
C         -2.88509       -2.05190        1.68785
C         -4.33545       -2.47513        1.69985
C         -4.83658       -3.12910        0.39957
C         -3.73652       -3.94813       -0.28171
C         -2.52405       -3.06095       -0.59628
C         -2.04058       -2.27917        0.59964
H         -1.70267       -3.67310       -0.98859
H         -4.11522       -4.43347       -1.19244
H         -5.17846       -2.35133       -0.29232
H         -4.94983       -1.59891        1.94283
H         -3.02272       -1.30081        3.67550
H         -0.66791       -0.65155        3.82224
N          1.14823       -0.84488        1.94506
P          1.73158        0.23156        0.66823
C          2.91340       -0.64427       -0.36065
C          3.25553       -0.17765       -1.60715
C          4.20601       -0.85252       -2.35125
C          4.82427       -1.98910       -1.84641
C          4.49210       -2.42037       -0.56944
C          3.53755       -1.74666        0.17074
H          3.26712       -2.07668        1.16095
H          4.98123       -3.28778       -0.16068
C          5.85185       -2.71089       -2.64616
H          4.47338       -0.49971       -3.33264
H          2.78176        0.70971       -1.99226
C          2.69498        1.60729        1.30669
C          3.54594        1.42092        2.36879
C          4.29294        2.48491        2.84123
C          4.19980        3.73493        2.24342
C          3.33726        3.89922        1.16772
C          2.59175        2.83484        0.69521
H          1.92547        2.95756       -0.14436
H          3.24973        4.86719        0.70461
C          4.97764        4.88871        2.77358
H          4.95124        2.35090        3.68251
H          3.62158        0.44697        2.82503
H          1.39061       -0.39276        2.81741
H         -0.20489       -0.03254       -2.85380
C         -1.00475        2.36310       -1.76207
C         -2.02238        3.28682       -1.73827
C         -1.82212        4.54144       -2.28451
C         -0.59766        4.88270       -2.84369
C          0.41729        3.93519       -2.85862
C          0.21330        2.68032       -2.31434
H          1.00044        1.94499       -2.31315
H          1.36817        4.18610       -3.29684
C         -0.39063        6.22845       -3.44681
H         -2.61667        5.26785       -2.27343
H         -2.96399        3.02732       -1.28205
C         -2.92192        0.29335       -1.27352
C         -3.24821       -0.24920       -2.49424
C         -4.56450       -0.56710       -2.77939
C         -5.56641       -0.32522       -1.85001
C         -5.21944        0.23056       -0.62601
C         -3.90330        0.54107       -0.34428
H         -3.63773        1.00169        0.59119
H         -5.98691        0.42153        0.10449
C         -6.97857       -0.68843       -2.15260
H         -4.82185       -1.00466       -3.72880
H         -2.47039       -0.42681       -3.21944
Cl        -2.31087        2.29413        1.64638
H          1.86568       -6.15394       -1.71696
H          0.55322       -6.33783        0.63724
H          3.00666       -6.83474        0.33721
H         -0.24579       -4.20856        1.41116
H         -3.42637       -4.76454        0.38253
H         -2.77362       -2.36194       -1.39986
H         -4.47957       -3.17066        2.53544
H         -5.72061       -3.75279        0.59317
H          5.88814       -3.76786       -2.37838
H          5.63440       -2.64810       -3.71336
H          6.84254       -2.28644       -2.47804
H          5.22128        5.59714        1.98059
H          4.40803        5.42044        3.53691
H          5.91572        4.55882        3.22217
H         -0.93736        6.99427       -2.89482
H          0.66431        6.50615       -3.43989
H         -0.73670        6.24691       -4.48113
H         -7.24411       -0.40769       -3.17277
H         -7.13394       -1.76316       -2.04809
H         -7.67124       -0.18214       -1.47894
