45
-71.81442270
C          2.20244        1.44499        2.37226
P          1.49726        0.94290        0.76710
P         -1.03303        0.06890       -0.93671
C         -0.40563       -0.54020       -2.53903
Cl         1.40084       -1.72404        2.46719
H          1.40563        1.73975        3.04909
H         -0.91007       -0.02976       -3.35443
Cl        -1.39586       -2.55602        0.72870
C          0.43458        2.20509        0.03699
C         -0.65124        1.81822       -0.71795
C         -1.45520        2.76581       -1.31704
C         -1.16560        4.10996       -1.16064
C         -0.07276        4.49814       -0.40993
C          0.73172        3.54396        0.18813
H         -2.30390        2.44694       -1.90089
H         -1.79202        4.85285       -1.62635
H          0.15570        5.54458       -0.29160
H          1.59351        3.83534        0.76630
Pd         0.19686       -0.97446        0.73068
H         -0.57948       -1.60914       -2.62392
H          2.88306        2.28062        2.23684
H          0.66163       -0.35128       -2.61223
C         -5.47803       -0.62731       -0.26547
C         -4.71816        0.02797        0.68307
C         -3.36840        0.23584        0.46029
C         -2.79051       -0.21090       -0.70607
C         -3.54311       -0.86698       -1.65342
C         -4.89282       -1.07524       -1.43335
H         -6.52901       -0.79228       -0.09261
H         -5.17301        0.37369        1.59674
H         -2.75905        0.74193        1.19303
H         -3.07497       -1.21791       -2.55855
H         -5.48563       -1.58983       -2.17168
C          4.63535       -0.43155       -2.21663
C          4.44946       -1.12629       -1.03728
C          3.50108       -0.69482       -0.12812
C          2.75457        0.42791       -0.40135
C          2.92692        1.11785       -1.57901
C          3.87427        0.68836       -2.49077
H          5.37329       -0.76686       -2.92702
H          5.03586       -2.00580       -0.82802
H          3.31312       -1.24013        0.78332
H          2.31908        1.98496       -1.78082
H          4.01656        1.22632       -3.41358
H          2.74777        0.61422        2.81080
