58
-89.86726319
P          1.69617        0.36875        0.77450
C          3.16521        1.31851        0.37365
C          4.28357        0.68295       -0.11568
C          5.40975        1.41991       -0.43473
C          5.40575        2.79015       -0.26314
C          4.28013        3.42405        0.22499
C          3.15542        2.68388        0.54395
H          2.26442        3.16707        0.91283
H          4.26964       -0.38642       -0.25035
C          1.94774       -1.37811        0.42393
C          1.90825       -1.78506       -0.89088
C          2.06913       -3.12187       -1.20568
C          2.27470       -4.04324       -0.19843
C          2.33104       -3.62931        1.11776
C          2.17193       -2.29108        1.42907
H          2.23654       -1.95765        2.45169
H          1.75249       -1.05006       -1.66500
C          1.26882        0.68640        2.53364
C          0.08491       -0.11055        3.05978
C         -1.27155        0.39150        2.58988
P         -1.68704       -0.02134        0.84791
C         -1.58987       -1.78434        0.50303
C         -1.55861       -2.17779       -0.81561
C         -1.45703       -3.51860       -1.13615
C         -1.39244       -4.45992       -0.12841
C         -1.44064       -4.06374        1.19368
C         -1.54467       -2.72131        1.51016
H         -1.60467       -2.40655        2.53887
H         -1.61732       -1.42584       -1.58664
C         -3.32930        0.61363        0.50368
C         -3.54556        1.97221        0.52764
C         -4.80637        2.47132        0.25225
C         -5.83977        1.60477       -0.04532
C         -5.61662        0.24209       -0.06971
C         -4.35501       -0.25390        0.20533
H         -4.16308       -1.31449        0.18369
H         -2.72560        2.63670        0.75081
Pd        -0.09531        0.78659       -0.63550
Cl         1.37607        1.83110       -1.96918
Cl        -1.83495        0.98202       -2.04915
H         -2.08084       -0.03217        3.18990
H         -1.33923        1.47579        2.69471
H          0.20092       -1.16438        2.78104
H          0.10799       -0.10027        4.16075
H          2.17809        0.46322        3.09751
H          1.08983        1.75764        2.64059
H          6.28632        0.92538       -0.81986
H          4.27454        4.49408        0.35251
H          2.02890       -3.44231       -2.23369
H          2.49868       -4.34825        1.90282
H         -1.42428       -3.82557       -2.16851
H         -1.39698       -4.79992        1.97946
H         -4.97918        3.53490        0.26543
H         -6.42186       -0.43394       -0.30595
H          6.28124        3.36641       -0.51449
H          2.39440       -5.08674       -0.44016
H         -1.30743       -5.50591       -0.37404
H         -6.82152        1.99301       -0.26248
