58
-89.86549365
P          1.57457        0.21708        0.84501
C          1.90169        1.91031        0.33592
C          3.08612        2.23110       -0.28737
C          3.31538        3.52956       -0.70535
C          2.35172        4.49781       -0.50300
C          1.15883        4.16907        0.10944
C          0.93429        2.86986        0.52631
H         -0.00641        2.59453        0.97197
H          3.82154        1.46175       -0.45772
C          3.07819       -0.76805        0.83417
C          3.12327       -1.97631        0.17665
C          4.28322       -2.72921        0.19845
C          5.38962       -2.26936        0.88476
C          5.33812       -1.06098        1.55091
C          4.17619       -0.31011        1.52734
H          4.11955        0.63344        2.04732
H          2.25466       -2.32392       -0.35876
C          0.87642        0.13998        2.54154
C          0.22536       -1.22025        2.76858
C         -1.25632       -1.26522        2.42179
P         -1.69441       -0.60911        0.75039
C         -3.06442       -1.58350        0.12406
C         -2.85408       -2.90523       -0.19478
C         -3.89933       -3.66747       -0.68586
C         -5.14675       -3.09866       -0.85244
C         -5.35211       -1.77142       -0.53059
C         -4.30515       -1.01173       -0.04068
H         -4.44844        0.02679        0.21032
H         -1.87123       -3.33180       -0.06813
C         -2.11260        1.14529        0.76649
C         -2.23451        1.87259        1.92954
C         -2.51689        3.22497        1.86827
C         -2.68091        3.84228        0.64413
C         -2.56790        3.10968       -0.52015
C         -2.28375        1.75843       -0.45436
H         -2.18392        1.16986       -1.35295
H         -2.11358        1.38912        2.88398
Pd         0.06482       -0.44743       -0.77282
Cl         1.76707       -0.46531       -2.23605
Cl        -1.47353       -0.95331       -2.33506
H         -1.63338       -2.29016        2.46443
H         -1.84252       -0.69891        3.14684
H          0.76689       -1.96989        2.17297
H          0.36149       -1.53595        3.81520
H          1.71167        0.31661        3.22373
H          0.16698        0.95457        2.68676
H          4.24228        3.78254       -1.19332
H          0.39897        4.91924        0.25439
H          4.32290       -3.67200       -0.32199
H          6.20036       -0.70281        2.08899
H         -3.73778       -4.70168       -0.94185
H         -6.32462       -1.32669       -0.66357
H         -2.60873        3.79701        2.77701
H         -2.69507        3.58829       -1.47714
H          2.52764        5.50936       -0.83088
H          6.29443       -2.85486        0.90113
H         -5.96087       -3.69102       -1.23721
H         -2.89910        4.89676        0.59758
