64
-97.21773801
Cl        -1.65630       -1.28053       -2.50312
Cl         1.56976       -1.25374       -2.97182
P          1.92650       -0.65995        0.26110
C          2.09073       -2.33746        1.02865
C          3.72055       -0.28872       -0.05074
P         -1.27546       -0.12951        0.43442
C          1.27477        0.57959        1.43616
C         -0.14886        0.83852        1.50753
C         -0.35537        1.95162        2.42204
C          0.94479        2.38439        2.90280
C          1.95495        1.53533        2.29630
H         -1.32054        2.35604        2.73258
H          1.12907        3.19103        3.61572
Pd         0.17291       -0.89260       -1.26657
H          3.03372        1.59910        2.45288
C         -5.04602        2.11641       -0.82606
C         -4.04121        2.79594       -0.16728
C         -2.89537        2.12587        0.21876
C         -2.75045        0.78497       -0.05813
C         -3.75550        0.10597       -0.70880
C         -4.90543        0.77010       -1.09651
H         -5.94006        2.63670       -1.12900
H         -4.14852        3.84692        0.04590
H         -2.10861        2.65029        0.73110
H         -3.63337       -0.94427       -0.91910
H         -5.68765        0.23681       -1.61137
C         -2.58400       -3.95057        2.51311
C         -2.37590       -2.80120        3.25093
C         -1.98561       -1.63564        2.61569
C         -1.80431       -1.63224        1.25206
C         -2.01871       -2.77144        0.51183
C         -2.40838       -3.93778        1.14306
H         -2.88763       -4.85896        3.00745
H         -2.51560       -2.81146        4.31943
H         -1.81355       -0.72984        3.17539
H         -1.89276       -2.73493       -0.55823
H         -2.57654       -4.83249        0.56644
C          4.08227       -0.35878       -1.51825
H          3.91072        0.71795        0.34389
C          4.43985       -1.36070        0.79157
H          4.63869       -0.97304        1.80150
C          3.59216       -2.65655        0.89468
H          5.42621       -1.57519        0.35485
C          1.60883       -2.30827        2.46286
H          1.48088       -3.02674        0.42861
H          3.91736       -3.26632        1.74993
H          3.76600       -3.27793        0.00417
H          1.69913       -3.28813        2.93764
H          2.19486       -1.59820        3.04977
H          0.56426       -1.99881        2.52494
H          3.84854       -1.34532       -1.92166
H          3.53172        0.37449       -2.10910
H          5.14827       -0.18136       -1.67634
Fe         0.85934        2.45063        0.83894
C          2.25983        3.15564       -0.49609
C          1.46619        4.24470        0.04753
C          0.07280        3.99335       -0.27899
C          0.00724        2.74049       -1.01009
C          1.35564        2.22876       -1.14858
H          3.34778        3.06899       -0.45163
H          1.85312        5.11673        0.57973
H         -0.77095        4.64440       -0.03939
H         -0.88885        2.28902       -1.44065
H          1.63447        1.33623       -1.71098
