105
-153.06550726
Cl        -0.21359        1.57141        3.23840
Pd        -0.71205        1.20434        1.07068
P         -1.32276        0.67016       -1.12556
N         -1.18328       -1.03248       -1.49444
C         -0.00745       -1.80252       -1.48095
C          0.33617       -2.53777       -0.31977
C          1.43850       -3.40872       -0.33837
C          1.78075       -4.17239        0.91575
C          3.17844       -4.81114        0.89593
C          3.44255       -5.51124       -0.44102
C          3.34202       -4.52049       -1.61190
C          2.17060       -3.57485       -1.51652
C          1.81480       -2.84867       -2.64829
C          0.75495       -1.97777       -2.63482
H          0.48455       -1.43909       -3.52424
H          2.39207       -2.97504       -3.54855
H          4.26315       -3.93015       -1.67608
H          4.42319       -6.00783       -0.43253
H          3.93622       -4.03348        1.05287
H          1.69091       -3.49572        1.77453
C         -0.55702       -2.45410        0.85931
C         -0.14821       -1.74264        2.01649
C         -1.04271       -1.65184        3.08656
C         -2.30115       -2.19018        3.00446
C         -2.71787       -2.88659        1.87639
C         -4.11911       -3.44409        1.85642
C         -4.57138       -3.93286        0.47171
C         -3.46337       -4.74749       -0.20289
C         -2.19512       -3.89979       -0.38869
C         -1.82981       -3.05662        0.81262
H         -1.34220       -4.54626       -0.63189
H         -3.80849       -5.15240       -1.16469
H         -4.81895       -3.06816       -0.15706
H         -4.80902       -2.67745        2.23209
H         -2.98659       -2.07653        3.82728
H         -0.74846       -1.09940        3.96160
N          1.08447       -1.07736        2.09464
P          1.43514        0.21185        0.93540
C          2.26181        1.58346        1.76317
C          2.99011        1.37786        2.91054
C          3.62998        2.44263        3.51843
C          3.55743        3.71689        2.97222
C          2.82701        3.90186        1.80645
C          2.18897        2.83556        1.20002
H          1.64044        2.97284        0.28244
H          2.75958        4.88665        1.37660
C          4.21771        4.86990        3.64462
H          4.18989        2.28966        4.42521
H          3.06728        0.38647        3.32513
C          2.60077       -0.24049       -0.34256
C          2.50556        0.32717       -1.58891
C          3.46969        0.05513       -2.54146
C          4.53997       -0.77802       -2.24368
C          4.63811       -1.30982       -0.96437
C          3.66856       -1.04012       -0.01489
H          3.74063       -1.44082        0.98390
H          5.47920       -1.93377       -0.71488
C          5.58386       -1.06358       -3.26585
H          3.39444        0.48969       -3.52353
H          1.67835        0.97732       -1.81336
H          1.24627       -0.62678        2.98548
H         -1.82547       -1.27701       -0.74643
C         -0.46599        1.74559       -2.26494
C         -0.02772        2.97556       -1.83376
C          0.68996        3.78666       -2.69339
C          0.96596        3.37181       -3.98962
C          0.47979        2.14308       -4.41678
C         -0.23621        1.33226       -3.55474
H         -0.62335        0.38088       -3.88066
H          0.66774        1.82386       -5.42764
C          1.72681        4.25069       -4.92002
H          1.03849        4.75003       -2.36228
H         -0.26973        3.30406       -0.83532
C         -3.09262        0.97904       -1.16850
C         -3.92657        0.21395       -0.38624
C         -5.28996        0.44402       -0.40750
C         -5.82639        1.43750       -1.21522
C         -4.96656        2.20596       -1.98861
C         -3.60331        1.97469       -1.96669
H         -2.93351        2.57035       -2.56561
H         -5.37119        2.99041       -2.60506
C         -7.29101        1.70604       -1.21371
H         -5.94590       -0.14342        0.21209
H         -3.51270       -0.54449        0.25948
Cl        -2.59961        2.40307        1.29379
H          3.27871       -5.06421       -2.56322
H          3.29938       -5.51257        1.73347
H          2.70777       -6.31435       -0.57969
H          1.01997       -4.94644        1.07120
H         -3.22879       -5.62192        0.41698
H         -2.32087       -3.24976       -1.26148
H         -4.17656       -4.26907        2.57646
H         -5.49814       -4.51932        0.54529
H          4.52280        5.62636        2.92023
H          3.54009        5.34082        4.35801
H          5.10955        4.55216        4.18656
H          6.37237       -0.31046       -3.23537
H          6.04265       -2.03908       -3.09830
H          5.15905       -1.06675       -4.27070
H          1.05389        4.91883       -5.45917
H          2.44896        4.86414       -4.37938
H          2.27794        3.66242       -5.65510
H         -7.85838        0.79328       -1.02654
H         -7.55046        2.42867       -0.43888
H         -7.61898        2.10855       -2.17312
