111
-148.55279067
P         -1.71047        2.74910        0.23478
P         -0.47887       -0.14987        0.50191
C         -1.43703        2.03076        1.87990
C         -0.96767        0.73914        1.99335
C         -0.54241        4.15710       -0.03880
C          0.40299        3.85115       -1.18093
C         -1.66303        2.78089        3.01648
H         -1.98875        3.80374        2.92277
C         -1.44547        2.22463        4.26516
H         -1.62597        2.80932        5.15242
C         -0.99139        0.92446        4.37561
H         -0.81697        0.49309        5.34757
C         -0.74175        0.18285        3.23516
H         -0.35528       -0.82143        3.30369
Pd        -1.60421        0.93884       -1.19955
Cl        -3.10323        1.89320       -2.56620
Cl        -1.30542       -0.84929       -2.53060
C         -1.47559        5.35802       -0.29595
C         -3.32642        3.64225        0.09122
H          1.08096        4.68615       -1.37270
H          1.00769        2.96632       -0.97240
H         -0.15335        3.65584       -2.10003
H         -1.52945        5.53462       -1.37890
H         -1.04341        6.27643        0.12901
H         -3.67251        3.47016       -0.93608
C         -2.90971        5.11474        0.25510
C         -4.36104        3.14877        1.07981
H          0.00471        4.28471        0.90446
H         -2.94810        5.38031        1.32034
H         -3.63852        5.77553       -0.23891
H         -4.54420        2.07877        0.95809
H         -4.03420        3.30926        2.10738
H         -5.31201        3.67140        0.95436
C         -0.47371       -4.67301        1.03250
C         -1.48882       -4.06170        0.24889
C         -1.49010       -2.68071        0.13937
C         -0.48892       -1.92719        0.69352
C          0.56520       -2.52314        1.33630
C          0.62446       -3.89839        1.49147
O         -0.59494       -6.03281        1.41812
C         -2.56301       -4.84623       -0.52390
H         -2.27236       -2.17562       -0.40131
H          1.35394       -1.89555        1.71679
C          1.88870       -4.49681        2.13097
C          3.59953        1.40375       -0.79592
C          2.87969        0.51617       -1.63600
C          1.64335        0.06657       -1.20648
C          1.15657        0.40534        0.02728
C          1.88859        1.18511        0.88259
C          3.13223        1.67110        0.51661
O          4.76565        2.05326       -1.28171
C          3.38796        0.07843       -3.01770
H          1.01301       -0.52175       -1.85047
H          1.46394        1.42782        1.84055
C          3.92859        2.51170        1.52623
C         -3.92507       -4.66615        0.16556
C         -2.64954       -4.30516       -1.96875
C         -2.23334       -6.34569       -0.62532
C          3.14054       -3.85320        1.49338
C          1.88412       -4.20433        3.64035
C          1.99780       -6.01436        1.90232
C         -1.31478       -6.19719        2.62829
H         -4.20113       -3.61329        0.21371
H         -4.70881       -5.19399       -0.37718
H         -3.90405       -5.05134        1.18335
H         -3.34677       -4.89415       -2.56389
H         -2.99229       -3.27236       -1.99599
H         -1.67454       -4.34684       -2.45332
H         -2.95324       -6.86466       -1.25774
H         -1.24023       -6.49283       -1.04839
H         -2.25253       -6.82033        0.35292
H          3.20611       -2.78868        1.71198
H          4.05108       -4.31775        1.87099
H          3.12550       -3.97419        0.41055
H          1.02080       -4.65633        4.12518
H          2.78149       -4.59884        4.11631
H          1.84778       -3.13181        3.82920
H          1.93212       -6.24861        0.84040
H          2.94428       -6.40167        2.27877
H          1.19845       -6.54773        2.41144
H         -1.38255       -7.25923        2.86494
H         -0.80473       -5.67943        3.43916
H         -2.31786       -5.78626        2.52496
C          4.51449        3.29647       -1.92575
C          4.92438       -0.01011       -3.04287
C          2.85021       -1.32662       -3.37463
C          2.89336        1.07477       -4.07752
C          3.60199        2.07888        2.97406
C          5.44395        2.32229        1.33299
C          3.55218        3.99222        1.36268
H          5.38143        0.96165       -2.87470
H          5.28207       -0.68579       -2.26666
H          5.27984       -0.37935       -4.00452
H          3.31062       -1.69587       -4.29068
H          3.06843       -2.03879       -2.57923
H          1.77400       -1.31695       -3.54032
H          3.26464        2.07758       -3.88079
H          3.22488        0.78227       -5.07343
H          1.80447        1.12042       -4.08387
H          3.73380        1.00407        3.09640
H          4.25889        2.57971        3.68487
H          2.57984        2.33333        3.25080
H          5.76829        2.68145        0.35963
H          6.00685        2.86821        2.08969
H          5.71097        1.26854        1.40587
H          2.48726        4.14027        1.53960
H          3.77261        4.34749        0.35903
H          4.10086        4.61494        2.06874
H          4.88045        3.25783       -2.95161
H          3.44635        3.51535       -1.92942
H          5.04662        4.09253       -1.40530
