111
-148.55058373
P         -2.62672        2.20605        0.49847
P          0.06754        0.53802        0.36374
C         -1.51121        2.16049        1.93226
C         -0.32198        1.46950        1.85224
C         -3.53154        3.82317        0.45018
C         -3.40966        4.49686       -0.89843
C         -1.85136        2.80249        3.10649
H         -2.78981        3.32753        3.17492
C         -0.99415        2.75574        4.19251
H         -1.26049        3.25700        5.10873
C          0.19986        2.06606        4.10525
H          0.86578        2.02733        4.95155
C          0.53540        1.41669        2.93091
H          1.45553        0.85923        2.84881
Pd        -1.40230        1.29357       -1.24917
Cl        -3.03868        1.95070       -2.63024
Cl        -0.09268        0.39622       -2.83933
C         -4.97471        3.42253        0.82100
C         -4.05070        1.03470        0.65985
H         -3.90242        5.47194       -0.90668
H         -2.36358        4.64239       -1.17762
H         -3.87650        3.88882       -1.67420
H         -5.68300        4.10068        0.32295
H         -5.13808        3.56502        1.89935
H         -3.95458        0.30359       -0.15480
C         -5.27782        1.94444        0.44668
C         -4.02218        0.33612        2.00172
H         -3.08340        4.45699        1.22710
H         -6.12545        1.56161        1.03357
H         -5.59868        1.89570       -0.60435
H         -4.09377        1.06064        2.81505
H         -4.85311       -0.36542        2.10776
H         -3.09131       -0.21898        2.13687
C         -0.98311       -3.86628        0.83138
C         -0.98972       -3.02794        1.97611
C         -0.67188       -1.69012        1.81153
C         -0.43195       -1.17064        0.56665
C         -0.53377       -1.95362       -0.55193
C         -0.84842       -3.29760       -0.46083
O         -1.06425       -5.27615        0.98220
C         -1.28452       -3.55879        3.38759
H         -0.58466       -1.03696        2.66147
H         -0.34494       -1.49243       -1.50574
C         -0.99608       -4.11438       -1.75326
C          4.47774        0.63277       -0.76266
C          3.63328        1.70127       -1.16085
C          2.30479        1.67272       -0.76777
C          1.79845        0.60252       -0.07890
C          2.58529       -0.47993        0.21746
C          3.92102       -0.51542       -0.14424
O          5.88195        0.72408       -0.95570
C          4.13853        2.88005       -2.00770
H          1.64001        2.48518       -1.00546
H          2.13382       -1.31001        0.73307
C          4.73687       -1.78644        0.14002
C         -1.92803       -2.45946        4.26299
C         -2.27927       -4.73298        3.34296
C          0.03049       -4.00311        4.04578
C         -1.54613       -3.22771       -2.89450
C          0.38009       -4.65478       -2.17079
C         -1.99052       -5.27466       -1.56843
C          0.19998       -5.91603        1.10614
H         -2.81153       -2.04605        3.77801
H         -2.23623       -2.86457        5.22657
H         -1.23434       -1.64515        4.46648
H         -3.19695       -4.43904        2.83454
H         -1.86302       -5.58594        2.81283
H         -2.53929       -5.06486        4.34781
H          0.73029       -3.17004        4.10908
H         -0.14407       -4.37526        5.05498
H          0.50944       -4.79446        3.47406
H         -2.46045       -2.72164       -2.58585
H         -0.82546       -2.47214       -3.20325
H         -1.77608       -3.82778       -3.77449
H          0.30946       -5.23393       -3.09108
H          1.07936       -3.83627       -2.34008
H          0.80228       -5.29636       -1.40087
H         -1.63441       -5.98944       -0.83094
H         -2.95695       -4.90116       -1.23155
H         -2.14203       -5.81368       -2.50328
H          0.33037       -6.63093        0.29395
H          1.00430       -5.17987        1.07467
H          0.24293       -6.46061        2.04924
C          6.57944        1.31360        0.13407
C          4.64866        3.99294       -1.08025
C          5.25770        2.43342       -2.96608
C          2.99831        3.44847       -2.88342
C          5.82451       -1.99466       -0.92918
C          5.37584       -1.68096        1.53267
C          3.82697       -3.03703        0.10737
H          5.00203        4.84869       -1.65495
H          3.85487        4.33586       -0.41704
H          5.47001        3.64279       -0.45960
H          4.91731        1.61244       -3.59625
H          5.56928        3.25232       -3.61396
H          6.13485        2.09377       -2.42090
H          2.52320        2.65668       -3.46215
H          2.23430        3.93920       -2.28243
H          3.38069        4.19142       -3.58292
H          6.36279       -2.92772       -0.76453
H          5.38207       -2.02883       -1.92423
H          6.55300       -1.18768       -0.91593
H          5.94957       -2.57706        1.76785
H          6.04608       -0.82697        1.59494
H          4.61082       -1.55877        2.29915
H          3.12730       -3.05020        0.94189
H          4.41966       -3.94909        0.17371
H          3.25552       -3.07633       -0.81962
H          5.88368        1.58706        0.92833
H          7.31484        0.60861        0.52133
H          7.10808        2.20291       -0.20862
