111
-148.55291375
P         -2.48813        2.15429        0.95517
P          0.09999        0.32563        0.53487
C         -1.41690        1.74618        2.36192
C         -0.28140        0.98925        2.16680
C         -3.14108        3.88226        1.07309
C         -2.45336        4.80395        0.08977
C         -1.74101        2.18374        3.63017
H         -2.64114        2.75652        3.78255
C         -0.91844        1.87105        4.69879
H         -1.17128        2.21290        5.68916
C          0.22398        1.12035        4.49822
H          0.86400        0.87644        5.33011
C          0.54136        0.67443        3.22768
H          1.42181        0.07512        3.05459
Pd        -1.32594        1.42880       -0.90545
Cl        -2.96236        2.42337       -2.07755
Cl         0.01243        0.82309       -2.60485
C         -4.65115        3.69331        0.83686
C         -4.07392        1.20146        0.94310
H         -1.37512        4.83606        0.26371
H         -2.60873        4.46417       -0.93496
H         -2.83969        5.82340        0.16061
H         -4.86013        3.83380       -0.23263
H         -5.22259        4.47800        1.35567
H         -4.20591        0.84430       -0.08707
C         -5.12533        2.27712        1.27374
C         -4.02383        0.03960        1.91189
H         -2.95621        4.21427        2.10260
H         -5.31002        2.27033        2.35677
H         -6.09031        2.02511        0.80823
H         -3.22407       -0.65730        1.65082
H         -3.83367        0.38991        2.92808
H         -4.96567       -0.51389        1.92187
C         -1.15736       -4.03320        0.13514
C         -1.17043       -3.42193        1.41575
C         -0.77142       -2.09946        1.51634
C         -0.44915       -1.37403        0.39966
C         -0.55201       -1.92703       -0.84911
C         -0.93454       -3.24483       -1.02228
O         -1.32749       -5.43820        0.01620
C         -1.57445       -4.18091        2.68941
H         -0.69620       -1.61860        2.47538
H         -0.31821       -1.30316       -1.69422
C         -1.06299       -3.79954       -2.44906
C          4.42486        0.81892       -0.79214
C          3.81206       -0.45894       -0.84224
C          2.49684       -0.56916       -0.42602
C          1.82017        0.50748        0.08393
C          2.43833        1.72154        0.22811
C          3.75638        1.90010       -0.16127
O          5.68747        1.02493       -1.40896
C          4.52475       -1.70708       -1.38566
H          1.97228       -1.50381       -0.51584
H          1.86740        2.53664        0.63894
C          4.42384        3.26513        0.06823
C         -2.19075       -3.21647        3.72846
C         -2.64016       -5.24908        2.38358
C         -0.32984       -4.83648        3.30643
C         -1.50340       -2.68598       -3.42733
C          0.29996       -4.34208       -2.90577
C         -2.12908       -4.90742       -2.52161
C         -0.11148       -6.17367        0.07150
H         -3.01185       -2.64912        3.29156
H         -2.58395       -3.76827        4.58198
H         -1.45453       -2.51331        4.11489
H         -2.97353       -5.74272        3.29609
H         -3.50881       -4.79821        1.90484
H         -2.25320       -6.01634        1.71760
H          0.12536       -5.54392        2.61744
H          0.41951       -4.08454        3.55278
H         -0.58351       -5.37278        4.22049
H         -2.40144       -2.18545       -3.06631
H         -0.72556       -1.93621       -3.56342
H         -1.72313       -3.09967       -4.41117
H          1.05071       -3.55233       -2.89695
H          0.64834       -5.13659       -2.25004
H          0.24232       -4.74100       -3.91813
H         -2.26354       -5.25551       -3.54543
H         -1.85109       -5.76647       -1.91632
H         -3.08868       -4.54026       -2.15921
H          0.02498       -6.72699       -0.85746
H          0.73408       -5.50101        0.22118
H         -0.15547       -6.89045        0.89137
C          5.60566        1.42111       -2.77243
C          6.03665       -1.65188       -1.10243
C          3.98484       -2.98532       -0.70284
C          4.27001       -1.81615       -2.89684
C          3.84251        3.95077        1.32578
C          5.93783        3.11236        0.30238
C          4.16375        4.16792       -1.14723
H          6.50696       -0.81770       -1.61684
H          6.22287       -1.53369       -0.03551
H          6.53107       -2.56453       -1.43425
H          4.57418       -3.85569       -0.99050
H          4.03054       -2.89407        0.38204
H          2.95383       -3.19148       -0.98637
H          4.74652       -2.70448       -3.31062
H          3.20177       -1.87787       -3.10337
H          4.65804       -0.94902       -3.42570
H          2.80367        4.24396        1.18222
H          3.89600        3.28717        2.18850
H          4.39963        4.85632        1.56500
H          6.43687        2.70880       -0.57499
H          6.39820        4.07355        0.52968
H          6.13094        2.43805        1.13603
H          3.09398        4.30621       -1.30225
H          4.57520        3.73452       -2.05557
H          4.61499        5.15000       -1.00826
H          4.56302        1.49368       -3.08476
H          6.09268        2.38734       -2.90275
H          6.12256        0.69281       -3.39707
