105
-153.06506397
Cl         0.06841        2.02648        3.03799
Pd        -0.54505        1.24283        1.00941
P         -1.09338        0.49684       -1.14028
N         -0.67906       -0.99946       -1.96985
C          0.22474       -2.00392       -1.62668
C          0.36049       -2.49400       -0.30235
C          1.30426       -3.51002       -0.03746
C          1.41454       -4.06101        1.36528
C          2.65184       -4.93779        1.61775
C          2.88998       -5.90449        0.45515
C          3.09338       -5.12997       -0.85464
C          2.07230       -4.04282       -1.07725
C          1.89132       -3.57114       -2.37094
C          0.98456       -2.58130       -2.64296
H          0.86548       -2.21767       -3.64873
H          2.48532       -3.98835       -3.16646
H          4.09220       -4.67792       -0.86550
H          3.74740       -6.56093        0.66121
H          3.53320       -4.29553        1.73968
H          1.41419       -3.22479        2.07296
C         -0.63635       -2.13663        0.73680
C         -0.21870       -1.53663        1.95724
C         -1.15174       -1.41227        2.99164
C         -2.44721       -1.82888        2.82834
C         -2.87919       -2.39747        1.63621
C         -4.31368       -2.86124        1.55034
C         -4.77285       -3.24206        0.13357
C         -3.68747       -4.03883       -0.59461
C         -2.39341       -3.21919       -0.70317
C         -1.97265       -2.55504        0.58567
H         -1.57537       -3.85747       -1.05976
H         -4.03557       -4.35555       -1.58801
H         -4.99567       -2.33258       -0.43768
H         -4.96270       -2.07835        1.96242
H         -3.15158       -1.71584        3.63510
H         -0.84440       -0.95150        3.91401
N          1.06837       -1.00417        2.13178
P          1.58439        0.21417        0.96685
C          2.61149       -0.35905       -0.37455
C          2.44246        0.20319       -1.61491
C          3.27312       -0.17100       -2.65505
C          4.28095       -1.10439       -2.45050
C          4.45662       -1.63259       -1.17787
C          3.62241       -1.25865       -0.13957
H          3.75187       -1.66262        0.85193
H          5.24962       -2.33990       -1.00557
C          5.17941       -1.50671       -3.56720
H          3.13977        0.25801       -3.63333
H          1.65560        0.92292       -1.76248
C          2.50429        1.55882        1.72087
C          3.25117        1.34302        2.85376
C          3.96219        2.38869        3.41427
C          3.93694        3.65105        2.83615
C          3.17748        3.84642        1.69028
C          2.46773        2.79998        1.12985
H          1.87739        2.94738        0.23851
H          3.14145        4.82440        1.24160
C          4.67563        4.78467        3.45796
H          4.53999        2.23039        4.30881
H          3.27867        0.35959        3.29426
H          1.21840       -0.55809        3.02747
H         -0.93990       -0.89502       -2.94225
C         -0.58043        1.90100       -2.14157
C         -0.81249        3.17617       -1.68379
C         -0.40151        4.26535       -2.42792
C          0.24905        4.08550       -3.64069
C          0.45722        2.79201       -4.09954
C          0.04300        1.70516       -3.35187
H          0.22029        0.70313       -3.70460
H          0.94814        2.64117       -5.04586
C          0.67502        5.25764       -4.45437
H         -0.58561        5.26408       -2.07044
H         -1.32409        3.31273       -0.74511
C         -2.89029        0.53007       -1.11118
C         -3.54655        0.83247       -2.28083
C         -4.92973        0.85719       -2.30921
C         -5.66442        0.57675       -1.16538
C         -4.98356        0.28291        0.00733
C         -3.60201        0.24564        0.02851
H         -3.07299        0.00940        0.93723
H         -5.54320        0.08717        0.90583
C         -7.15226        0.62961       -1.18293
H         -5.44693        1.10025       -3.22161
H         -2.97335        1.05238       -3.16799
Cl        -2.34002        2.60156        1.15046
H          3.07405       -5.81792       -1.70966
H          2.55502       -5.48607        2.56551
H          2.02458       -6.57154        0.35384
H          0.50444       -4.63163        1.58498
H         -3.48556       -4.96571       -0.04321
H         -2.51567       -2.44238       -1.46680
H         -4.43769       -3.72170        2.21875
H         -5.71562       -3.80632        0.16568
H          6.05859       -0.86237       -3.60899
H          5.52058       -2.53582       -3.44554
H          4.66665       -1.44050       -4.52786
H          5.56671        4.43477        3.98102
H          4.99596        5.50625        2.70512
H          4.04549        5.30734        4.17879
H          1.55505        5.02164       -5.05433
H         -0.12122        5.56849       -5.13209
H          0.92685        6.10752       -3.81846
H         -7.57912       -0.09455       -0.48747
H         -7.50740        1.62068       -0.89745
H         -7.54340        0.40456       -2.17612
