111
-148.55433288
P         -2.60085        1.98089        0.25094
P          0.13640        0.41614        0.51199
C         -1.77938        1.86573        1.86491
C         -0.56222        1.22650        1.96233
C         -3.45635        3.60810        0.03391
C         -2.67396        4.53724       -0.86829
C         -2.36320        2.40653        2.99278
H         -3.32472        2.88709        2.91769
C         -1.71846        2.31365        4.21428
H         -2.17349        2.73642        5.09511
C         -0.49524        1.67774        4.30700
H          0.00495        1.60314        5.25854
C          0.08256        1.12693        3.17735
H          1.02812        0.61048        3.23450
Pd        -1.03005        1.27479       -1.29028
Cl        -2.45568        1.98654       -2.87090
Cl         0.56716        0.53717       -2.68594
C         -4.83843        3.19349       -0.50343
C         -4.03302        0.82481        0.05035
H         -3.18282        5.49606       -0.99155
H         -1.67587        4.73099       -0.46826
H         -2.54927        4.10234       -1.86055
H         -4.80432        3.19625       -1.60168
H         -5.59799        3.94127       -0.22872
H         -3.89184        0.33351       -0.92178
C         -5.24289        1.77706       -0.00233
C         -4.08088       -0.19676        1.16596
H         -3.55550        4.04335        1.03630
H         -5.67511        1.85527        1.00472
H         -6.03841        1.35052       -0.63203
H         -3.17909       -0.81214        1.17677
H         -4.15384        0.29424        2.13812
H         -4.94164       -0.86159        1.06302
C         -1.41527       -3.86220        0.32717
C         -0.87182       -3.25413       -0.83302
C         -0.41323       -1.95329       -0.73303
C         -0.40673       -1.29112        0.46563
C         -0.82669       -1.91333        1.61158
C         -1.30424       -3.21305        1.58388
O         -2.10907       -5.09702        0.22332
C         -0.81764       -3.95559       -2.19858
H         -0.07365       -1.42041       -1.60380
H         -0.79876       -1.35731        2.53199
C         -1.73470       -3.87837        2.90038
C          4.63730        0.86085        0.00011
C          4.01432       -0.38398       -0.27047
C          2.64373       -0.47936       -0.10112
C          1.91243        0.57457        0.38003
C          2.52366        1.74737        0.73898
C          3.89346        1.90762        0.60370
O          5.99101        1.07466       -0.37234
C          4.78387       -1.60815       -0.78998
H          2.12134       -1.38158       -0.36595
H          1.90885        2.54564        1.11805
C          4.54401        3.21659        1.07808
C         -2.10128       -3.63783       -2.98055
C          0.39507       -3.45745       -3.01853
C         -0.65394       -5.47746       -2.03708
C         -0.89773       -3.33918        4.08275
C         -3.21539       -3.56730        3.16747
C         -1.51235       -5.40092        2.85149
C         -3.50008       -4.95646       -0.03797
H         -2.98333       -3.98868       -2.45004
H         -2.20742       -2.56279       -3.12500
H         -2.08787       -4.11058       -3.96218
H          1.31652       -3.55457       -2.44561
H          0.50785       -4.03812       -3.93368
H          0.28379       -2.41542       -3.31416
H         -0.55340       -5.96573       -3.00608
H          0.23313       -5.70716       -1.44768
H         -1.51104       -5.91814       -1.53431
H         -1.11039       -3.89823        4.99372
H          0.16832       -3.42948        3.87576
H         -1.11977       -2.29359        4.29110
H         -3.55036       -4.03064        4.09511
H         -3.37450       -2.49257        3.25155
H         -3.84712       -3.93328        2.36165
H         -0.47305       -5.62951        2.61790
H         -1.75490       -5.86342        3.80793
H         -2.13510       -5.86885        2.09318
H         -3.74835       -5.45103       -0.97688
H         -4.07164       -5.43206        0.75890
H         -3.77117       -3.90170       -0.10023
C          6.15157        1.58610       -1.68966
C          4.12026       -2.91603       -0.30058
C          4.77080       -1.59573       -2.32627
C          6.23244       -1.62096       -0.26938
C          3.76379        3.80989        2.27339
C          5.98651        2.97719        1.56009
C          4.53247        4.23618       -0.07079
H          4.73011       -3.78051       -0.56202
H          3.99876       -2.90704        0.78224
H          3.14190       -3.06796       -0.75323
H          5.24587       -0.69879       -2.71672
H          5.29837       -2.45991       -2.72903
H          3.74819       -1.61802       -2.70247
H          6.79557       -0.76805       -0.63930
H          6.24894       -1.58475        0.81937
H          6.75494       -2.52300       -0.58690
H          4.29187        4.66556        2.69361
H          2.77557        4.15866        1.97758
H          3.64402        3.06938        3.06384
H          6.42374        3.89250        1.95825
H          6.00849        2.22147        2.34454
H          6.62423        2.63443        0.74909
H          5.09295        3.87057       -0.92781
H          4.97460        5.18183        0.24181
H          3.51283        4.43268       -0.40130
H          6.73226        0.88420       -2.28786
H          5.17855        1.74304       -2.15707
H          6.69363        2.53087       -1.65118
