58
-89.86122435
P          1.62720        0.08970        0.79161
C          2.90834        1.36057        0.81257
C          3.17677        2.08269       -0.32762
C          4.15566        3.05795       -0.32233
C          4.87269        3.30300        0.83095
C          4.61444        2.57061        1.97219
C          3.63221        1.59631        1.96101
H          3.43679        1.01586        2.84721
H          2.63369        1.86055       -1.22981
C          2.30681       -1.48902        0.27820
C          1.47651       -2.58402        0.21616
C          1.97803       -3.80586       -0.19320
C          3.31004       -3.92031       -0.53908
C          4.13928       -2.81725       -0.47864
C          3.63365       -1.59653       -0.06914
H          4.26555       -0.72435       -0.02494
H          0.43606       -2.47666        0.47418
C          0.90073       -0.07226        2.47172
C          0.06494        1.16343        2.79554
C         -1.41579        0.99856        2.48681
P         -1.76982        0.30657        0.81320
C         -1.89687       -1.49477        0.79711
C         -2.00640       -2.10378       -0.43308
C         -2.06152       -3.48171       -0.52600
C         -2.00936       -4.24689        0.62117
C         -1.91130       -3.63594        1.85536
C         -1.85810       -2.25694        1.94348
H         -1.79085       -1.78007        2.90659
H         -2.03546       -1.48991       -1.31954
C         -3.28853        1.05206        0.21782
C         -4.42854        0.29306        0.08476
C         -5.59199        0.87725       -0.38259
C         -5.60314        2.21801       -0.71360
C         -4.45605        2.97517       -0.57840
C         -3.29384        2.38826       -0.10983
H         -2.38686        2.96348       -0.00731
H         -4.40241       -0.75344        0.34225
Pd        -0.06498        0.43525       -0.77161
Cl         1.52852        0.40512       -2.35546
Cl        -1.69063        0.65892       -2.31405
H         -1.89512        0.33687        3.20983
H         -1.93947        1.95525        2.55641
H          0.18803        1.44369        3.85387
H          0.46872        2.01496        2.22761
H          0.30296       -0.98247        2.51180
H          1.72709       -0.21338        3.17130
H          4.36176        3.62017       -1.21832
H          5.17838        2.75620        2.87161
H          1.32789       -4.66359       -0.24594
H          5.17751       -2.90535       -0.75353
H         -2.13930       -3.95472       -1.49107
H         -1.87593       -4.23384        2.75130
H         -6.48614        0.28567       -0.49112
H         -4.46344        4.02014       -0.84148
H          5.63787        4.06210        0.83899
H          3.70239       -4.87133       -0.86051
H         -2.04850       -5.32190        0.55364
H         -6.50812        2.67376       -1.08106
