111
-148.55591603
P         -2.19844        2.30542        1.32010
P          0.06018        0.21674        0.49374
C         -1.14090        1.57044        2.58891
C         -0.19583        0.63400        2.23160
C         -2.22676        4.14978        1.42907
C         -1.49591        4.75706        0.25119
C         -1.30458        1.91720        3.91444
H         -2.04254        2.65578        4.18330
C         -0.52625        1.31074        4.88534
H         -0.65348        1.57921        5.92136
C          0.40592        0.35539        4.52835
H          1.00648       -0.12305        5.28441
C          0.56960        0.01422        3.19762
H          1.28880       -0.73465        2.90391
Pd        -1.58988        1.36475       -0.68835
Cl        -3.42972        2.20222       -1.65461
Cl        -0.90294        0.22590       -2.50371
C         -3.73118        4.47776        1.48190
C         -3.99401        1.93530        1.59179
H         -1.95713        4.44757       -0.68905
H         -1.51705        5.84893        0.28724
H         -0.45105        4.43755        0.22422
H         -4.07668        4.70876        0.46484
H         -3.90376        5.39392        2.06680
H         -4.39790        1.66817        0.60627
C         -4.56079        3.29163        2.04932
C         -4.20064        0.80235        2.57478
H         -1.73794        4.41419        2.37585
H         -4.55001        3.32813        3.14731
H         -5.61966        3.37989        1.76221
H         -5.26116        0.57467        2.70449
H         -3.69644       -0.10753        2.24347
H         -3.79748        1.05843        3.55557
C         -1.04480       -4.13945       -0.23143
C         -2.05955       -3.16885       -0.01612
C         -1.67288       -1.86553        0.24890
C         -0.35369       -1.49787        0.20795
C          0.62020       -2.40400       -0.11982
C          0.30577       -3.72673       -0.38351
O         -1.37119       -5.52000       -0.22527
C         -3.56584       -3.46812       -0.10520
H         -2.40838       -1.11374        0.47942
H          1.64022       -2.06388       -0.17095
C          1.43852       -4.65753       -0.84878
C          4.33763        0.99667       -0.89993
C          3.99214        1.23767        0.45412
C          2.68797        0.99646        0.85246
C          1.73155        0.59868       -0.04619
C          2.04085        0.47599       -1.37544
C          3.32200        0.70528       -1.84499
O          5.70039        1.01241       -1.29997
C          5.01781        1.71435        1.49454
H          2.40436        1.10943        1.88277
H          1.25190        0.19836       -2.05030
C          3.59172        0.61705       -3.35566
C         -4.17014       -3.50110        1.30773
C         -4.26179       -2.35797       -0.92598
C         -3.85053       -4.80080       -0.81923
C          2.29574       -3.93471       -1.91205
C          2.32883       -5.01916        0.35110
C          0.90383       -5.94391       -1.50187
C         -1.32770       -6.09151        1.07130
H         -3.72916       -4.29514        1.90694
H         -3.99842       -2.55882        1.82651
H         -5.24580       -3.67063        1.26680
H         -3.78510       -2.24306       -1.89905
H         -5.31183       -2.59713       -1.09174
H         -4.22684       -1.39504       -0.41926
H         -3.37417       -4.82077       -1.79881
H         -3.47042       -5.64337       -0.24625
H         -4.92081       -4.95196       -0.95762
H          2.82422       -3.08007       -1.49301
H          3.04665       -4.60580       -2.32829
H          1.67118       -3.57910       -2.73107
H          3.15641       -5.65784        0.04342
H          2.74798       -4.12305        0.80793
H          1.76340       -5.54813        1.11575
H          1.71639       -6.54521       -1.90896
H          0.36878       -6.55861       -0.78185
H          0.21693       -5.70550       -2.31318
H         -0.31397       -6.04691        1.46560
H         -1.98937       -5.54692        1.74263
H         -1.64655       -7.13256        1.01598
C          6.33990       -0.25565       -1.22569
C          4.32835        2.54114        2.60386
C          5.69061        0.49365        2.14030
C          6.07846        2.62515        0.84973
C          2.33891        1.03885       -4.15750
C          4.73015        1.56579       -3.77263
C          3.94511       -0.83070       -3.72756
H          5.06719        2.98791        3.26880
H          3.73442        3.34736        2.17406
H          3.67592        1.92475        3.22063
H          6.41575        0.80040        2.89365
H          4.95022       -0.14350        2.62359
H          6.21084       -0.10769        1.39864
H          6.76750        3.01540        1.59833
H          6.66686        2.08703        0.11064
H          5.60602        3.47016        0.35000
H          1.52738        0.32140       -4.04650
H          1.97991        2.01444       -3.83107
H          2.56404        1.10365       -5.22169
H          5.67220        1.28352       -3.30944
H          4.87675        1.55148       -4.85234
H          4.50496        2.58917       -3.47440
H          4.15162       -0.92071       -4.79369
H          3.12033       -1.50054       -3.48742
H          4.82164       -1.17590       -3.18444
H          7.20260       -0.19084       -0.56281
H          5.64777       -1.01002       -0.84925
H          6.69227       -0.54692       -2.21501
