64
-97.21735373
Cl        -1.59173       -0.98537       -2.64981
Cl         1.55176       -1.42752       -2.90999
P          1.92527       -0.66401        0.25977
C          2.10508       -2.33596        1.03597
C          3.71426       -0.28681       -0.07254
P         -1.27768       -0.13490        0.45809
C          1.27921        0.57931        1.43542
C         -0.14498        0.82716        1.52726
C         -0.33964        1.95358        2.42733
C          0.96323        2.38779        2.89969
C          1.96813        1.53739        2.28628
H         -1.30181        2.36206        2.74150
H          1.15299        3.20030        3.60459
Pd         0.15036       -0.91791       -1.23966
H          3.04855        1.60252        2.43129
C         -5.04078        2.10195       -0.83386
C         -4.04436        2.78447       -0.16540
C         -2.90059        2.11760        0.23216
C         -2.75020        0.77703       -0.04265
C         -3.74685        0.09441       -0.70238
C         -4.89434        0.75577       -1.10214
H         -5.93299        2.61989       -1.14608
H         -4.15635        3.83537        0.04569
H         -2.11992        2.64362        0.75214
H         -3.62009       -0.95604       -0.90985
H         -5.67028        0.22035       -1.62421
C         -2.59753       -3.96801        2.50463
C         -2.38911       -2.82520        3.25249
C         -1.99466       -1.65536        2.62786
C         -1.80958       -1.64167        1.26490
C         -2.02360       -2.77412        0.51366
C         -2.41776       -3.94463        1.13516
H         -2.90426       -4.87980        2.99074
H         -2.53201       -2.84385        4.32045
H         -1.82276       -0.75423        3.19513
H         -1.89055       -2.73137       -0.55572
H         -2.58526       -4.83474        0.55129
C          4.06671       -0.38561       -1.54092
H          3.90096        0.72883        0.30026
C          4.44489       -1.33816        0.78584
H          4.63963       -0.93311        1.78974
C          3.61019       -2.64085        0.90849
H          5.43334       -1.54919        0.35211
C          1.61714       -2.30552        2.46812
H          1.50455       -3.03414        0.43681
H          3.94072       -3.23372        1.77348
H          3.79170       -3.27447        0.02821
H          2.19361       -1.58707        3.05429
H          0.56914       -2.00648        2.52464
H          1.71542       -3.28241        2.94741
H          3.84061       -1.38326       -1.92056
H          3.50516        0.32827       -2.14491
H          5.12984       -0.20135       -1.71006
Fe         0.88400        2.46447        0.84187
C          2.24613        3.18393       -0.50937
C          1.42498        4.26466        0.00994
C          0.03837        3.96945       -0.30788
C          0.00431        2.69874       -1.00896
C          1.36513        2.21918       -1.13923
H          3.33607        3.12566       -0.46392
H          1.78964        5.15867        0.52089
H         -0.82145        4.60383       -0.08199
H         -0.87951        2.21156       -1.42541
H          1.66486        1.31970       -1.67884
