87
-129.18146227
P         -1.52910       -0.27173       -0.42901
P          1.71213        0.29637        0.24642
C         -1.08693        0.97374       -1.64451
C          1.51832       -0.80752       -1.17667
C          0.01431        0.73808       -2.45720
C          0.36946        1.70502       -3.41871
C         -0.40209        2.84994       -3.53613
C         -1.49672        3.06006       -2.72267
C         -1.83724        2.11639       -1.77353
C          2.13688       -2.02540       -1.01540
C          2.03460       -2.99788       -1.99127
C          1.29377       -2.74748       -3.12519
C          0.64424       -1.53776       -3.30105
C          0.76290       -0.53828       -2.31601
Cl         0.93816       -0.17768        3.36731
Cl        -1.63768       -1.91194        2.38891
H         -2.08192        3.95930       -2.82389
H         -2.69293        2.26743       -1.13680
H          2.69720       -2.21671       -0.11218
H          2.52320       -3.94947       -1.86066
H         -0.13065        3.58725       -4.27244
H          1.19941       -3.50566       -3.88407
C         -2.46404       -4.17743       -2.55309
C         -1.64281       -4.19717       -1.43392
C         -1.38844       -2.99963       -0.77753
C         -1.91732       -1.82026       -1.24684
C         -2.72626       -1.80731       -2.35878
C         -3.00503       -2.99289       -3.01332
H         -2.67832       -5.10147       -3.06242
C         -1.06933       -5.47054       -0.92055
H         -0.77455       -2.99454        0.10696
H         -3.12693       -0.87021       -2.71257
H         -3.63882       -2.99055       -3.88490
C         -5.15494        1.09315        1.97243
C         -5.22091       -0.06258        1.22022
C         -4.12298       -0.47037        0.48690
C         -2.97157        0.28142        0.50453
C         -2.90357        1.43217        1.25516
C         -3.99370        1.85292        2.00668
H         -6.00880        1.41267        2.54521
H         -6.12477       -0.64937        1.20849
H         -4.15656       -1.37790       -0.09338
H         -1.99746        2.01226        1.25755
C         -3.91647        3.10191        2.81210
C          6.06791       -0.02767        1.54233
C          5.74399        0.15507        0.21242
C          4.41779        0.24671       -0.16853
C          3.42692        0.15582        0.78194
C          3.75084       -0.02445        2.10507
C          5.07552       -0.12777        2.50708
H          7.09980       -0.09324        1.84279
H          6.52320        0.22755       -0.52854
H          4.14959        0.38293       -1.20449
H          2.96408       -0.08757        2.83489
C          5.41970       -0.29961        3.94494
C          0.81115        4.71851       -0.30317
C          1.68283        4.08718       -1.16818
C          1.96660        2.74462       -1.00233
C          1.36733        2.04426        0.01741
C          0.52968        2.67993        0.90530
C          0.23344        4.02913        0.75380
H          0.57847        5.76116       -0.43743
H          2.13445        4.63687       -1.97765
H          2.64085        2.23532       -1.67154
H          0.13877        2.13402        1.74713
C         -0.70143        4.71512        1.68583
Pd        -0.14400       -0.53492        1.44080
C          1.55508        1.52563       -4.30126
C         -0.17703       -1.33153       -4.52678
H          1.24838        1.30267       -5.32393
H          2.16330        2.43106       -4.32388
H          2.19157        0.71068       -3.95449
H          0.45656       -1.11555       -5.38780
H         -0.76206       -2.22317       -4.75654
H         -0.87714       -0.50442       -4.40549
H         -0.05144       -5.32104       -0.55729
H         -1.66751       -5.85913       -0.09530
H         -1.03427       -6.23234       -1.70055
H         -3.98436        3.98197        2.17115
H         -4.72635        3.15466        3.54096
H         -2.97519        3.15295        3.36104
H          4.62587       -0.82419        4.47871
H          6.33717       -0.87765        4.06410
H          5.56533        0.66837        4.42632
H         -1.70476        4.76249        1.26048
H         -0.76184        4.19069        2.64041
H         -0.37361        5.73547        1.88955
