111
-148.55308148
P         -2.66770        1.82728        0.64466
P          0.23689        0.52098        0.44571
C         -1.69240        1.52148        2.14704
C         -0.41175        1.01906        2.05412
C         -3.80862        3.26518        0.91016
C         -3.64145        4.32946       -0.15124
C         -2.23479        1.79122        3.38807
H         -3.24427        2.16105        3.46074
C         -1.48864        1.56962        4.53252
H         -1.91311        1.78117        5.50038
C         -0.20220        1.07673        4.43553
H          0.37947        0.90269        5.32583
C          0.33465        0.79572        3.19264
H          1.33162        0.39602        3.10434
Pd        -1.12475        1.62615       -1.07100
Cl        -2.64340        2.54057       -2.44298
Cl         0.40838        1.36446       -2.68903
C         -5.20250        2.60229        0.91510
C         -3.89435        0.48883        0.28385
H         -4.27619        5.19663        0.04562
H         -2.60619        4.67282       -0.21109
H         -3.91742        3.93979       -1.13164
H         -5.94388        3.30475        0.50713
H         -5.52052        2.40574        1.94955
H         -3.58607        0.01855       -0.66025
C         -5.21306        1.27003        0.11317
C         -3.92504       -0.53371        1.39891
H         -3.56469        3.68257        1.89605
H         -6.05809        0.63747        0.42220
H         -5.37990        1.48957       -0.95178
H         -4.20643       -0.06491        2.34366
H         -4.64561       -1.32933        1.19511
H         -2.94532       -0.99415        1.54030
C         -1.42148       -3.63277       -0.40064
C         -1.08612       -2.77416       -1.47820
C         -0.56256       -1.52892       -1.18142
C         -0.33207       -1.14556        0.11307
C         -0.54814       -2.01331        1.15071
C         -1.04649       -3.28521        0.92313
O         -2.17217       -4.81382       -0.64204
C         -1.34355       -3.14190       -2.94690
H         -0.34294       -0.82238       -1.96255
H         -0.34192       -1.67463        2.15106
C         -1.20134       -4.24616        2.11170
C          4.78310        0.54309        0.14942
C          4.12664       -0.40420        0.97959
C          2.74205       -0.39021        1.01976
C          2.02262        0.57185        0.35938
C          2.65749        1.56360       -0.34067
C          4.03883        1.59967       -0.43934
O          6.15979        0.38628       -0.15484
C          4.85787       -1.43486        1.85713
H          2.20619       -1.15163        1.56154
H          2.05481        2.29999       -0.84414
C          4.67330        2.77835       -1.19672
C         -0.31771       -2.44741       -3.87171
C         -1.20118       -4.65751       -3.17375
C         -2.75298       -2.67498       -3.34258
C         -0.09123       -3.99351        3.15771
C         -2.56707       -4.01855        2.77729
C         -1.06733       -5.71274        1.66313
C         -3.57912       -4.63086       -0.54295
H          0.70085       -2.64838       -3.54098
H         -0.41455       -2.80696       -4.89580
H         -0.46312       -1.36850       -3.89799
H         -1.32365       -4.90930       -4.22687
H         -0.21840       -5.00247       -2.85423
H         -1.94832       -5.21427       -2.61366
H         -2.96353       -2.90871       -4.38579
H         -3.51321       -3.15423       -2.73030
H         -2.85249       -1.59759       -3.21118
H         -0.11708       -4.75166        3.94009
H          0.89369       -4.02590        2.69233
H         -0.20736       -3.02692        3.64557
H         -2.65124       -2.99661        3.14605
H         -3.38058       -4.18523        2.07498
H         -2.70690       -4.69321        3.62150
H         -1.10914       -6.38920        2.51644
H         -1.86596       -5.99412        0.98147
H         -0.11937       -5.87172        1.15018
H         -4.05095       -4.91188       -1.48440
H         -3.97810       -5.27161        0.24317
H         -3.81258       -3.58972       -0.31650
C          6.38272       -0.44429       -1.28245
C          4.24511       -1.42453        3.27567
C          4.69090       -2.83747        1.24944
C          6.35467       -1.11474        2.01302
C          4.44210        2.59473       -2.70607
C          4.01297        4.09915       -0.74306
C          6.18047        2.91216       -0.91778
H          4.79513       -2.08927        3.94131
H          4.27708       -0.42170        3.70075
H          3.20807       -1.75612        3.27186
H          5.17833       -3.59018        1.86856
H          3.63746       -3.10314        1.16581
H          5.12623       -2.88985        0.25347
H          6.49392       -0.09785        2.37834
H          6.83136       -1.79729        2.71620
H          6.87813       -1.20237        1.06405
H          4.90988        1.68121       -3.06766
H          3.37792        2.53323       -2.93188
H          4.85740        3.43032       -3.26871
H          4.50059        4.95609       -1.20712
H          2.95985        4.14041       -1.01571
H          4.08736        4.21478        0.33784
H          6.58872        3.80754       -1.38595
H          6.73110        2.05880       -1.30620
H          6.36912        2.97185        0.15351
H          7.45548       -0.54381       -1.44924
H          5.95147       -1.42941       -1.11315
H          5.92041       -0.00736       -2.16590
