105
-153.06377405
Cl         0.01061        2.04816        3.06611
Pd        -0.45932        1.36438        0.97345
P         -1.07775        0.50366       -1.13659
N         -0.65123       -0.99650       -1.95697
C          0.23305       -2.01167       -1.59733
C          0.34839       -2.48764       -0.26710
C          1.27855       -3.50959        0.02088
C          1.36662       -4.04378        1.43145
C          2.59333       -4.92776        1.70930
C          2.83675       -5.91096        0.56151
C          3.06176       -5.15504       -0.75572
C          2.05252       -4.06248       -1.00387
C          1.88931       -3.60559       -2.30542
C          0.99605       -2.60951       -2.59912
H          0.89213       -2.25561       -3.61002
H          2.48751       -4.03834       -3.08941
H          4.06435       -4.71123       -0.76057
H          3.68620       -6.57178        0.78570
H          3.47865       -4.29146        1.83376
H          1.36395       -3.19861        2.12859
C         -0.65990       -2.10887        0.75315
C         -0.25526       -1.48315        1.96304
C         -1.19776       -1.33655        2.98509
C         -2.48853       -1.76813        2.82318
C         -2.90674       -2.36861        1.64187
C         -4.33403       -2.85347        1.55693
C         -4.78435       -3.24337        0.13998
C         -3.69358       -4.04431       -0.57554
C         -2.39821       -3.22604       -0.68123
C         -1.99212       -2.53878        0.60042
H         -1.57578       -3.87025       -1.01644
H         -4.03507       -4.36722       -1.56924
H         -5.00346       -2.33746       -0.43826
H         -4.99556       -2.08019        1.96708
H         -3.19917       -1.64334        3.62265
H         -0.89982       -0.85415        3.89944
N          1.03640       -0.96730        2.14548
P          1.60098        0.22838        0.98103
C          2.61245       -0.35315       -0.36680
C          2.43863        0.21594       -1.60362
C          3.25680       -0.16320       -2.65195
C          4.25629       -1.10807       -2.45911
C          4.43649       -1.64360       -1.19016
C          3.61505       -1.26492       -0.14346
H          3.74794       -1.67473        0.84520
H          5.22267       -2.36077       -1.02751
C          5.14186       -1.51501       -3.58438
H          3.12044        0.27116       -3.62743
H          1.65776        0.94449       -1.74187
C          2.54206        1.54346        1.76254
C          3.25747        1.29666        2.90938
C          3.98579        2.31619        3.49535
C          3.99930        3.58710        2.93617
C          3.28614        3.80951        1.76583
C          2.55951        2.78889        1.17998
H          2.00266        2.95902        0.27144
H          3.30185        4.78766        1.31635
C          4.79846        4.68008        3.55601
H          4.54953        2.12988        4.39346
H          3.25121        0.30798        3.33882
H          1.17879       -0.51063        3.03705
H         -0.92729       -0.91422       -2.92749
C         -0.61855        1.88145       -2.20350
C         -0.91664        3.16959       -1.82851
C         -0.55188        4.23029       -2.63500
C          0.10968        4.00911       -3.83465
C          0.40446        2.70310       -4.20090
C          0.03522        1.64522       -3.39067
H          0.27248        0.63442       -3.67659
H          0.92828        2.51962       -5.12349
C          0.52893        5.15360       -4.69021
H         -0.77833        5.23942       -2.33574
H         -1.43854        3.33941       -0.90197
C         -2.87421        0.49483       -1.08342
C         -3.56448        0.25981        0.08022
C         -4.94681        0.26600        0.07680
C         -5.64929        0.48799       -1.09900
C         -4.93578        0.69962       -2.27068
C         -3.55214        0.70871       -2.26023
H         -2.99558        0.88346       -3.16782
H         -5.46993        0.86060       -3.19145
C         -7.13777        0.45462       -1.10870
H         -5.48995        0.09964        0.99115
H         -3.01692        0.08601        0.99237
Cl        -2.32527        2.62787        0.98268
H          3.04658       -5.85365       -1.60211
H          2.48064       -5.46344        2.66248
H          1.96706       -6.57216        0.45854
H          0.44918       -4.60431        1.64663
H         -3.49573       -4.96787       -0.01713
H         -2.51032       -2.46267       -1.45989
H         -4.44562       -3.71477        2.22644
H         -5.72715       -3.80774        0.16961
H          4.62408       -1.43474       -4.54126
H          6.02975       -0.88281       -3.62719
H          5.46927       -2.54963       -3.47205
H          5.81336        4.69275        3.15632
H          4.34807        5.65471        3.36299
H          4.86368        4.55501        4.63773
H          1.49245        5.54787       -4.36439
H          0.62440        4.85207       -5.73426
H         -0.19939        5.96457       -4.64560
H         -7.54500        0.82366       -0.16636
H         -7.54093        1.07651       -1.90914
H         -7.50125       -0.56321       -1.25703
