111
-148.55615215
P         -1.69523        2.82540        0.10202
P         -0.52655       -0.07158        0.54317
C         -1.60815        2.13189        1.77820
C         -1.17024        0.83704        1.95987
C         -0.56740        4.28003       -0.07292
C          0.50908        3.99238       -1.09866
C         -1.95732        2.89813        2.87194
H         -2.26625        3.92049        2.72813
C         -1.88936        2.35549        4.14358
H         -2.16602        2.95222        4.99740
C         -1.46293        1.05304        4.32056
H         -1.40520        0.63282        5.31114
C         -1.09181        0.29421        3.22512
H         -0.72427       -0.71227        3.34773
Pd        -1.31569        1.03988       -1.31744
Cl        -2.38848        2.16682       -2.93304
Cl        -0.86133       -0.74726       -2.59958
C         -1.51804        5.42997       -0.46514
C         -3.32302        3.63486       -0.25000
H          0.06353        3.76336       -2.06896
H          1.17374        4.84913       -1.23276
H          1.11809        3.13274       -0.81039
H         -1.45217        5.58418       -1.55085
H         -1.18102        6.37562       -0.01454
H         -3.54461        3.42035       -1.30341
C         -2.99488        5.12898       -0.08030
C         -4.43602        3.11530        0.63500
H         -0.13488        4.45229        0.92134
H         -3.17128        5.41603        0.96536
H         -3.68924        5.74253       -0.67468
H         -4.55523        2.03485        0.52630
H         -4.23005        3.31684        1.68659
H         -5.39068        3.58767        0.39261
C         -0.86685       -4.60654        0.63995
C          0.14836       -3.95809        1.38904
C          0.21899       -2.57551        1.33723
C         -0.71517       -1.84594        0.64900
C         -1.76497       -2.46146        0.01987
C         -1.88934       -3.84105        0.02307
O         -0.83458       -6.01628        0.47011
C          1.19287       -4.72686        2.21322
H          1.02579       -2.04660        1.81557
H         -2.47206       -1.84553       -0.50870
C         -3.08815       -4.48267       -0.69229
C          3.79038        1.17597       -0.18378
C          3.23447        0.09353       -0.91298
C          1.91552       -0.25020       -0.67074
C          1.19159        0.37510        0.30859
C          1.75361        1.35468        1.08457
C          3.06498        1.75367        0.88995
O          5.05378        1.70960       -0.55291
C          4.01581       -0.68378       -1.98297
H          1.41794       -0.99189       -1.27147
H          1.14535        1.81816        1.84074
C          3.67280        2.81560        1.82013
C          1.64186       -3.89264        3.43469
C          0.61233       -6.04334        2.76092
C          2.42166       -5.01244        1.33639
C         -3.49264       -5.80854       -0.02281
C         -4.32171       -3.55337       -0.63120
C         -2.72753       -4.71978       -2.16689
C         -0.08074       -6.44489       -0.65736
H          2.21030       -3.01302        3.13648
H          0.78118       -3.56412        4.01674
H          2.28416       -4.48086        4.08973
H          1.33316       -6.55415        3.39885
H         -0.28481       -5.85164        3.34859
H          0.34456       -6.72460        1.95737
H          2.86284       -4.08273        0.97810
H          3.18388       -5.55359        1.89638
H          2.15628       -5.60885        0.46676
H         -2.70035       -6.54910       -0.09702
H         -3.70781       -5.65459        1.03404
H         -4.38138       -6.22942       -0.49237
H         -4.53356       -3.25732        0.39586
H         -4.17811       -2.65273       -1.22617
H         -5.20497       -4.05705       -1.02333
H         -1.87764       -5.39120       -2.26199
H         -3.56528       -5.15779       -2.70876
H         -2.46335       -3.78113       -2.65360
H          0.32731       -5.58546       -1.19096
H          0.73441       -7.08989       -0.32986
H         -0.72005       -7.01889       -1.32792
C          4.98315        2.73715       -1.53366
C          5.51969       -0.72401       -1.65733
C          3.53149       -2.15093       -2.04762
C          3.78443       -0.02915       -3.35329
C          5.17778        2.56686        2.02753
C          3.44590        4.21333        1.22492
C          3.00865        2.76498        3.21505
H          5.68644       -1.15005       -0.66854
H          6.06179       -1.32927       -2.38346
H          5.95587        0.27149       -1.66849
H          4.16482       -2.73876       -2.71157
H          3.56189       -2.61203       -1.06092
H          2.51416       -2.22505       -2.42867
H          4.12494        1.00360       -3.35954
H          4.31805       -0.56529       -4.13757
H          2.72413       -0.02924       -3.60529
H          5.72781        2.66698        1.09496
H          5.59887        3.27910        2.73665
H          5.35131        1.56230        2.41188
H          2.38144        4.42232        1.12737
H          3.88164        4.98345        1.86090
H          3.89333        4.30035        0.23799
H          3.04151        1.75550        3.62408
H          1.96886        3.08718        3.17832
H          3.52318        3.42567        3.91242
H          5.45596        3.64075       -1.14910
H          5.52055        2.42738       -2.42969
H          3.94414        2.94961       -1.78885
