111
-148.55113202
P         -2.37827        2.35725       -0.20969
P         -0.00246        0.37840        0.47167
C         -1.72996        2.28541        1.47828
C         -0.74351        1.37347        1.78295
C         -2.45249        4.08602       -0.85791
C         -1.69047        4.18325       -2.16180
C         -2.24644        3.09943        2.46602
H         -2.99900        3.82884        2.21480
C         -1.79297        2.97533        3.76784
H         -2.19766        3.60832        4.54061
C         -0.83145        2.03333        4.07909
H         -0.48655        1.92775        5.09452
C         -0.30612        1.22916        3.08365
H          0.44055        0.48477        3.31281
Pd        -1.24904        0.77297       -1.45963
Cl        -2.83583        0.99858       -3.02972
Cl         0.03746       -0.68646       -2.57730
C         -3.96672        4.34893       -0.99725
C         -4.17014        1.88729       -0.32000
H         -0.64163        3.90484       -2.03160
H         -2.11888        3.50952       -2.90668
H         -1.72408        5.19541       -2.57232
H         -4.14505        5.02133       -1.84902
H         -4.33626        4.88810       -0.11269
H         -4.20718        0.93024       -0.85828
C         -4.76937        3.02822       -1.16669
C         -4.80914        1.74545        1.04566
H         -2.00167        4.73516       -0.09495
H         -5.82425        3.17601       -0.89287
H         -4.77510        2.74045       -2.22830
H         -4.24896        1.05384        1.67811
H         -4.84060        2.70750        1.55884
H         -5.83691        1.38231        0.97182
C         -1.15015       -4.00741        0.82383
C          0.22199       -3.65833        0.73574
C          0.55184       -2.31731        0.64008
C         -0.41300       -1.34689        0.69890
C         -1.73094       -1.67230        0.88784
C         -2.12941       -2.99504        0.99449
O         -1.54632       -5.36566        0.69957
C          1.34472       -4.70614        0.68485
H          1.57250       -2.01250        0.49345
H         -2.45096       -0.87254        0.92867
C         -3.61271       -3.30906        1.24313
C          4.50431        1.06952        0.08651
C          3.81975        0.26496       -0.85813
C          2.45049        0.12022       -0.72276
C          1.76974        0.66466        0.33433
C          2.44623        1.36725        1.29861
C          3.81624        1.55657        1.22638
O          5.86582        1.41482       -0.12500
C          4.52869       -0.42360       -2.03531
H          1.88245       -0.40846       -1.46606
H          1.88503        1.78433        2.11403
C          4.53084        2.29843        2.36776
C          0.97727       -5.95624        1.50454
C          1.61120       -5.09019       -0.77875
C          2.64890       -4.13914        1.29128
C         -4.27510       -2.18574        2.07216
C         -4.34159       -3.41355       -0.10536
C         -3.77938       -4.61364        2.04316
C         -1.81573       -5.76903       -0.63744
H          1.79942       -6.67136        1.51817
H          0.74591       -5.68540        2.53413
H          0.10894       -6.46211        1.09015
H          1.88609       -4.21272       -1.36326
H          2.42276       -5.81365       -0.85186
H          0.72852       -5.52781       -1.23855
H          3.06914       -3.34416        0.67751
H          2.47108       -3.74291        2.29064
H          3.40860       -4.91651        1.36977
H         -4.35742       -1.26361        1.50012
H         -5.28484       -2.46738        2.37005
H         -3.70314       -1.98093        2.97682
H         -3.92433       -4.20784       -0.71933
H         -5.40168       -3.62050        0.03864
H         -4.25198       -2.48222       -0.66435
H         -3.40755       -5.47089        1.48779
H         -3.22948       -4.56033        2.98218
H         -4.82781       -4.80063        2.27402
H         -2.84643       -6.11452       -0.71519
H         -1.65764       -4.93656       -1.32440
H         -1.15931       -6.59528       -0.90981
C          6.05254        2.60953       -0.87362
C          5.96907       -0.81871       -1.66259
C          3.79503       -1.72650       -2.42838
C          4.53214        0.51996       -3.24738
C          5.96115        1.76395        2.56531
C          4.56545        3.80203        2.05551
C          3.78570        2.09163        3.70657
H          6.57825        0.05551       -1.44771
H          5.97522       -1.45537       -0.77845
H          6.44902       -1.36270       -2.47574
H          3.66989       -2.37536       -1.56260
H          2.81250       -1.52627       -2.85277
H          4.36055       -2.27739       -3.17946
H          5.05467        1.44708       -3.02434
H          5.02100        0.05493       -4.10301
H          3.51345        0.77541       -3.53834
H          6.44513        2.24415        3.41541
H          5.94771        0.68945        2.74499
H          6.57820        1.94771        1.68935
H          5.10290        4.00095        1.13159
H          3.55536        4.19522        1.94271
H          5.05593        4.35569        2.85575
H          4.35953        2.50418        4.53611
H          3.62877        1.03137        3.90337
H          2.81709        2.58941        3.71081
H          6.63408        3.32074       -0.28721
H          6.60668        2.38781       -1.78548
H          5.08941        3.05158       -1.13170
