171
-217.83510405
P         -1.44859        0.23909       -0.37862
P          1.68505       -0.71035        0.37013
C         -0.42889        1.04671       -1.63189
C          1.04380       -1.72048       -0.98723
C          0.43885        0.25932       -2.37809
C          1.26850        0.86788       -3.33900
C          1.16559        2.23375       -3.54631
C          0.28795        2.99923       -2.80740
C         -0.50287        2.40184       -1.84567
C          1.05806       -3.07465       -0.74840
C          0.52311       -3.95143       -1.67214
C         -0.04670       -3.45866       -2.82631
C         -0.08491       -2.09810       -3.08033
C          0.48270       -1.20685       -2.15044
Cl         0.65320       -1.12471        3.42714
Cl        -2.32623       -1.50952        2.33252
C         -0.75077       -1.61563       -4.32151
C          2.23519        0.05738       -4.13063
H          0.22555        4.06196       -2.97527
H         -1.16541        3.00139       -1.24660
H          1.48135       -3.44325        0.17444
H          0.54058       -5.01252       -1.48423
H          1.78406        2.69891       -4.29498
H         -0.48234       -4.13463       -3.54282
C         -4.34481       -2.51257       -2.51854
C         -3.73612       -2.96955       -1.35551
C         -2.85700       -2.11605       -0.70517
C         -2.58807       -0.86964       -1.20887
C         -3.18666       -0.43868       -2.36743
C         -4.08420       -1.25408       -3.04723
H         -5.05463       -3.14185       -3.02104
H         -2.39814       -2.41729        0.21906
H         -2.93633        0.53724       -2.74535
C         -4.11460        3.32481        1.66720
C         -3.37874        2.46233        2.47028
C         -2.55008        1.54160        1.84517
C         -2.47245        1.46633        0.47443
C         -3.23945        2.30445       -0.29783
C         -4.05885        3.26483        0.28022
H         -4.75561        4.04902        2.13156
H         -1.98831        0.85430        2.44915
H         -3.20575        2.20923       -1.36945
C          5.58257       -2.64091        1.64860
C          4.69911       -2.23303        2.64083
C          3.49830       -1.65924        2.24550
C          3.20209       -1.50471        0.91566
C          4.08517       -1.91698       -0.05203
C          5.29823       -2.49635        0.29571
H          6.51365       -3.08567        1.94563
H          2.77055       -1.34455        2.96983
H          3.82146       -1.79081       -1.08938
C          2.85116        3.63229       -0.22660
C          3.62856        2.62854       -0.78972
C          3.21470        1.31560       -0.61109
C          2.07796        1.02651        0.10299
C          1.32919        2.03295        0.66888
C          1.69851        3.36287        0.50082
H          3.15674        4.65555       -0.33670
H          3.80221        0.50646       -1.00931
H          0.45261        1.77636        1.23561
Pd        -0.37845       -0.80883        1.46033
C         -4.62741       -4.18081        0.64814
C         -4.01451       -4.35383       -0.75411
C         -2.69146       -5.13478       -0.64750
C         -4.99294       -5.16738       -1.62228
H         -4.85231       -5.14746        1.09818
H         -3.94681       -3.65295        1.31514
H         -5.55307       -3.60820        0.59540
H         -2.23414       -5.25045       -1.62974
H         -1.97819       -4.62027       -0.00460
H         -2.85675       -6.12883       -0.23264
H         -5.95760       -4.66650       -1.70132
H         -4.59560       -5.31507       -2.62637
H         -5.16796       -6.15174       -1.18824
C         -4.74833       -1.83111       -5.41282
C         -4.83174       -0.76966       -4.29860
C         -4.23437        0.54384       -4.84242
C         -6.30527       -0.52576       -3.92829
H         -5.25141       -1.48501       -6.31562
H         -3.71152       -2.04441       -5.66973
H         -5.21999       -2.76576       -5.11312
H         -4.74331        0.85091       -5.75598
H         -4.34047        1.35493       -4.12275
H         -3.17647        0.42563       -5.07569
H         -6.38519        0.22088       -3.13830
H         -6.87159       -0.17005       -4.78884
H         -6.77551       -1.44140       -3.57079
C         -4.06976        1.07386        4.43352
C         -3.50278        2.43960        4.00178
C         -4.44365        3.54655        4.51439
C         -2.11817        2.64471        4.64370
H         -4.19285        1.02557        5.51518
H         -5.04189        0.89800        3.97368
H         -3.40900        0.26028        4.13634
H         -4.08044        4.53320        4.22714
H         -5.45162        3.41951        4.11999
H         -4.51120        3.52318        5.60200
H         -2.18591        2.61119        5.73086
H         -1.41586        1.87220        4.33284
H         -1.70395        3.61309        4.36597
C         -3.89680        4.97723       -1.54218
C         -4.86580        4.20224       -0.62870
C         -5.68770        5.21976        0.18524
C         -5.83219        3.36574       -1.48793
H         -3.18002        5.54512       -0.94910
H         -3.33593        4.30340       -2.18883
H         -4.43703        5.67632       -2.18025
H         -5.04049        5.83948        0.80569
H         -6.24513        5.88333       -0.47580
H         -6.40826        4.71673        0.82984
H         -6.51162        2.79350       -0.85657
H         -6.43061        4.00450       -2.13726
H         -5.29187        2.66170       -2.11933
C          6.36023       -1.65854        4.43015
C          5.06366       -2.42878        4.11954
C          5.26980       -3.92900        4.39786
C          3.95209       -1.90848        5.05250
H          7.19317       -2.02669        3.83236
H          6.23755       -0.59711        4.21540
H          6.63297       -1.76134        5.48033
H          5.51118       -4.10172        5.44653
H          4.36628       -4.49106        4.16227
H          6.08279       -4.33562        3.79753
H          3.01547       -2.43858        4.88127
H          4.22532       -2.05164        6.09777
H          3.77817       -0.84357        4.89991
C          7.54225       -3.57473       -0.23738
C          6.25984       -2.94478       -0.81363
C          6.65469       -1.72443       -1.66637
C          5.55692       -3.99010       -1.70012
H          7.31127       -4.45344        0.36453
H          8.21139       -3.89004       -1.03792
H          8.08466       -2.86199        0.38358
H          7.14132       -0.96729       -1.05205
H          7.34528       -2.00964       -2.45977
H          5.78235       -1.26802       -2.13272
H          6.22168       -4.34430       -2.48777
H          5.24630       -4.85043       -1.10761
H          4.66927       -3.57443       -2.17576
C          5.18955        4.42230       -1.69987
C          4.95115        2.91124       -1.51658
C          4.93103        2.25387       -2.90815
C          6.10770        2.32468       -0.68659
H          5.27095        4.92794       -0.73794
H          6.11589        4.60405       -2.24474
H          4.37747        4.88004       -2.26471
H          4.81216        1.17380       -2.83623
H          4.10886        2.64684       -3.50466
H          5.85906        2.44940       -3.44513
H          5.99049        1.24966       -0.55488
H          7.06724        2.50107       -1.17227
H          6.14022        2.77916        0.30340
C          0.53937        5.55447        0.05101
C          0.91943        4.52609        1.13340
C          1.80311        5.19829        2.19955
C         -0.37471        4.04136        1.80691
H          1.42151        5.97285       -0.43148
H         -0.07805        5.09448       -0.71908
H         -0.02580        6.38068        0.48210
H          2.08856        4.48152        2.96935
H          2.71612        5.59844        1.75997
H          1.27541        6.02062        2.68239
H         -0.91963        4.87495        2.24966
H         -1.03327        3.56617        1.08242
H         -0.15716        3.32698        2.59963
H         -0.18961       -1.91422       -5.20814
H          2.71186       -0.70042       -3.50657
H         -0.84725       -0.52945       -4.33136
H         -1.75361       -2.03573       -4.40358
H          3.02316        0.68011       -4.55586
H          1.73548       -0.45101       -4.95573
