75
-122.81247423
P          1.89963       -0.52075       -0.15971
C          3.33639       -1.20765       -1.01306
C          4.29288       -1.83858       -0.24882
C          5.41312       -2.38260       -0.85106
C          5.57155       -2.28935       -2.21915
C          4.61623       -1.64935       -2.98255
C          3.50112       -1.10587       -2.37463
H          2.76781       -0.57722       -2.95705
H          4.74243       -1.56669       -4.04963
H          6.44334       -2.71267       -2.69084
H          6.15934       -2.87882       -0.25257
H          4.15723       -1.90612        0.81894
C          1.62395       -1.58720        1.25857
C          1.90572       -1.14213        2.52978
C          1.80735       -2.01295        3.59932
C          1.43304       -3.32485        3.38525
C          1.15321       -3.76694        2.10728
C          1.25317       -2.89402        1.03868
H          1.05900       -3.22821        0.03137
H          0.85804       -4.78987        1.94128
H          1.35204       -4.00358        4.21849
H          2.02153       -1.66711        4.59712
H          2.20471       -0.11722        2.67822
C          2.26376        1.16147        0.35379
C          3.42052        1.81710        0.00379
C          3.59378        3.15725        0.32222
C          2.55563        3.83169        0.96443
C          1.38639        3.18829        1.30592
C          1.24275        1.82126        1.02048
O          0.07237        1.12305        1.35859
C         -1.13674        1.78100        1.08235
C         -1.29799        3.15057        1.34512
C         -2.48842        3.76379        1.02388
C         -3.53376        3.05204        0.43660
C         -3.35438        1.70222        0.16847
C         -2.17743        1.07267        0.49999
P         -1.78918       -0.64735        0.11679
C         -1.74338       -1.57897        1.65917
C         -1.39569       -0.96247        2.83910
C         -1.45048       -1.66371        4.02896
C         -1.84795       -2.98579        4.02897
C         -2.18730       -3.60605        2.84299
C         -2.13713       -2.89807        1.65566
H         -2.41527       -3.36586        0.72479
H         -2.49455       -4.63889        2.84159
H         -1.88648       -3.53619        4.95479
H         -1.17444       -1.18096        4.95195
H         -1.06336        0.06146        2.82075
C         -3.08578       -1.39580       -0.88519
C         -4.37638       -1.38874       -0.40656
C         -5.38740       -1.98052       -1.14192
C         -5.09605       -2.58548       -2.34813
C         -3.79719       -2.60662       -2.81560
C         -2.78870       -2.01466       -2.07771
H         -1.77036       -2.03294       -2.43056
H         -3.56836       -3.08291       -3.75479
H         -5.88273       -3.04580       -2.92339
H         -6.39924       -1.97196       -0.77129
H         -4.58514       -0.93566        0.54998
Pd        -0.07015       -0.02615       -1.40929
Cl        -1.75079        0.87274       -2.62097
Cl         1.39049        1.03307       -2.76158
H         -4.13059        1.15213       -0.33229
C         -4.79420        3.73768        0.04609
H         -4.98969        4.59857        0.68666
H         -5.64839        3.06399        0.12586
H         -4.73813        4.08973       -0.98470
H         -2.60436        4.81502        1.22037
S          0.04376        4.04940        2.08135
H          2.65906        4.87920        1.18623
C          4.83156        3.87609       -0.08035
H          4.18393        1.29023       -0.54214
H          5.69310        3.20709       -0.07618
H          4.72933        4.28735       -1.08535
H          5.04793        4.69985        0.60107
