111
-148.55463940
P         -2.54752        2.07155        1.01219
P          0.09040        0.39071        0.54044
C         -1.48447        1.64959        2.42074
C         -0.31181        0.95976        2.20138
C         -3.30425        3.74964        1.20886
C         -2.63207        4.77297        0.31981
C         -1.84212        2.00510        3.70566
H         -2.76991        2.52592        3.87637
C         -1.01583        1.67595        4.76650
H         -1.29427        1.95342        5.77006
C          0.16301        0.99084        4.54183
H          0.80470        0.73296        5.36820
C          0.51433        0.62717        3.25420
H          1.42193        0.07657        3.06126
Pd        -1.31333        1.55836       -0.87536
Cl        -2.95824        2.54744       -2.03798
Cl         0.00361        1.00453       -2.60736
C         -4.78914        3.49185        0.89306
C         -4.07453        1.03256        0.89576
H         -1.56571        4.85362        0.54390
H         -2.72494        4.49589       -0.73093
H         -3.08038        5.76197        0.43984
H         -4.95919        3.67937       -0.17614
H         -5.42655        4.21416        1.42546
H         -4.14739        0.71679       -0.15365
C         -5.19898        2.02983        1.23274
C         -3.99462       -0.16806        1.81352
H         -3.18336        4.02252        2.26485
H         -5.42967        1.95385        2.30423
H         -6.12697        1.75098        0.71080
H         -4.90527       -0.76964        1.76553
H         -3.15116       -0.80989        1.55013
H         -3.85695        0.14489        2.85019
C         -1.13676       -3.95373       -0.05195
C         -1.13082       -3.40621        1.25706
C         -0.74797       -2.08466        1.41407
C         -0.45644       -1.30161        0.32843
C         -0.56800       -1.79606       -0.94339
C         -0.94405       -3.10718       -1.17329
O         -1.29238       -5.35331       -0.23639
C         -1.49034       -4.23355        2.50094
H         -0.65749       -1.65083        2.39400
H         -0.34305       -1.13297       -1.76049
C         -1.09876       -3.59101       -2.62297
C          4.46324        0.73301       -0.66736
C          3.90481       -0.53743       -0.37498
C          2.57067       -0.59623       -0.01061
C          1.82420        0.54367        0.13489
C          2.38584        1.78021       -0.04299
C          3.71610        1.91138       -0.40865
O          5.75295        0.82218       -1.25553
C          4.70113       -1.84650       -0.49144
H          2.08589       -1.54450        0.14469
H          1.76022        2.64631        0.08884
C          4.31130        3.31944       -0.56485
C         -0.21927       -4.89597        3.05357
C         -2.09570       -3.33260        3.60159
C         -2.54567       -5.30414        2.16896
C          0.26004       -4.09035       -3.13730
C         -2.15202       -4.70853       -2.72806
C         -1.57710       -2.43512       -3.53207
C         -0.06591       -6.07337       -0.24831
H         -0.44026       -5.48161        3.94556
H          0.23041       -5.55968        2.31892
H          0.52316       -4.14350        3.31866
H         -2.45642       -3.93270        4.43666
H         -1.36202       -2.63541        4.00336
H         -2.93794       -2.76018        3.21450
H         -2.84829       -5.84707        3.06402
H         -3.43312       -4.84587        1.73369
H         -2.16286       -6.03142        1.45732
H          0.18546       -4.43223       -4.16924
H          1.00224       -3.29331       -3.09853
H          0.63055       -4.91645       -2.53485
H         -3.10742       -4.37381       -2.32537
H         -2.30616       -5.00555       -3.76511
H         -1.84902       -5.59347       -2.17428
H         -1.81462       -2.80077       -4.53068
H         -2.47290       -1.96697       -3.12493
H         -0.81312       -1.66784       -3.64700
H          0.05130       -6.58224       -1.20490
H          0.77488       -5.39633       -0.09164
H         -0.07724       -6.82692        0.53904
C          5.74242        0.79857       -2.67755
C          4.55612       -2.40349       -1.91591
C          6.18651       -1.62457       -0.15427
C          4.16534       -2.90146        0.50423
C          3.62817        4.31095        0.40438
C          5.81372        3.32993       -0.22895
C          4.08553        3.80725       -2.00410
H          5.09853       -3.34223       -2.02545
H          3.50841       -2.58932       -2.15130
H          4.94137       -1.70453       -2.65425
H          6.73831       -2.56397       -0.17735
H          6.65805       -0.94890       -0.86338
H          6.29358       -1.19248        0.84012
H          3.16638       -3.24143        0.23442
H          4.80825       -3.78128        0.51856
H          4.12921       -2.49703        1.51546
H          4.13242        5.27693        0.38823
H          2.58876        4.48930        0.13313
H          3.65715        3.93537        1.42690
H          6.21912        4.34026       -0.27772
H          5.98494        2.94369        0.77527
H          6.38062        2.71513       -0.92338
H          3.02196        3.82863       -2.24073
H          4.56985        3.15138       -2.72340
H          4.48336        4.81211       -2.14327
H          6.19442        1.71260       -3.06232
H          6.33009       -0.04721       -3.03401
H          4.72010        0.71394       -3.04845
