105
-153.06347262
Cl         0.06355        2.10241        3.03899
Pd        -0.52144        1.26950        1.03398
P         -1.12589        0.52448       -1.12085
N         -0.71779       -0.98111       -1.94065
C          0.20076       -1.97841       -1.61348
C          0.34936       -2.48035       -0.29523
C          1.29774       -3.49609       -0.04728
C          1.41884       -4.05942        1.34970
C          2.65291       -4.94606        1.58363
C          2.88153       -5.89730        0.40633
C          3.08243       -5.10488       -0.89306
C          2.05912       -4.01659       -1.09800
C          1.86772       -3.53193       -2.38542
C          0.95565       -2.54247       -2.64087
H          0.82741       -2.17007       -3.64229
H          2.45712       -3.93931       -3.18941
H          4.08055       -4.65127       -0.89901
H          3.73687       -6.56048        0.59901
H          3.53811       -4.31020        1.71114
H          1.42997       -3.22849        2.06369
C         -0.64105       -2.13728        0.75458
C         -0.21841       -1.53630        1.97210
C         -1.14463       -1.41829        3.01303
C         -2.43713       -1.84841        2.86088
C         -2.87257       -2.42513        1.67392
C         -4.30071       -2.91088        1.60299
C         -4.76658       -3.31237        0.19385
C         -3.67179       -4.08822       -0.54300
C         -2.39783       -3.24034       -0.66958
C         -1.97359       -2.57141        0.61536
H         -1.57165       -3.85984       -1.04022
H         -4.02362       -4.41715       -1.53112
H         -5.01839       -2.41275       -0.38088
H         -4.95789       -2.13397        2.01342
H         -3.13551       -1.74309        3.67387
H         -0.83368       -0.95548        3.93318
N          1.06857       -1.00277        2.13964
P          1.58679        0.20941        0.96977
C          2.61644       -0.36391       -0.36909
C          2.45062        0.19974       -1.60926
C          3.28564       -0.17172       -2.64695
C          4.29467       -1.10331       -2.43991
C          4.46713       -1.63251       -1.16726
C          3.62857       -1.26148       -0.13141
H          3.75588       -1.66562        0.86030
H          5.26146       -2.33780       -0.99277
C          5.19807       -1.50212       -3.55385
H          3.15510        0.25836       -3.62514
H          1.66299        0.91844       -1.75852
C          2.51275        1.54884        1.72646
C          3.24897        1.33274        2.86624
C          3.96583        2.37481        3.42600
C          3.95750        3.63382        2.84019
C          3.20889        3.82957        1.68732
C          2.49347        2.78661        1.12763
H          1.91220        2.93428        0.23036
H          3.18573        4.80520        1.23272
C          4.70277        4.76388        3.46061
H          4.53539        2.21623        4.32576
H          3.26487        0.35164        3.31231
H          1.22238       -0.55541        3.03405
H         -0.99394       -0.87977       -2.90910
C         -0.58641        1.91456       -2.12947
C         -0.79688        3.19933       -1.68872
C         -0.36133        4.27202       -2.44261
C          0.29255        4.06619       -3.64937
C          0.47891        2.76382       -4.09195
C          0.04033        1.69377       -3.33392
H          0.20186        0.68464       -3.67376
H          0.97206        2.59270       -5.03363
C          0.74464        5.22074       -4.47406
H         -0.52906        5.27808       -2.09781
H         -1.31376        3.35694       -0.75701
C         -2.92205        0.55096       -1.11976
C         -3.57091        0.91815       -2.27481
C         -4.95387        0.93293       -2.31310
C         -5.69501        0.58927       -1.19072
C         -5.02115        0.21278       -0.03764
C         -3.63922        0.18580       -0.00734
H         -3.11191       -0.09916        0.88859
H         -5.58645       -0.05564        0.83820
C         -7.18333        0.58293       -1.23242
H         -5.46605        1.21498       -3.21708
H         -2.99259        1.19276       -3.14304
Cl        -2.40043        2.51230        1.00357
H          3.06274       -5.78093       -1.75751
H          2.55734       -5.50758        2.52372
H          2.01261       -6.55888        0.29935
H          0.50736       -4.62620        1.57367
H         -3.44297       -5.00781        0.01010
H         -2.54801       -2.46415       -1.42894
H         -4.40641       -3.76671        2.28045
H         -5.69502       -3.89889        0.24106
H          5.54313       -2.52978       -3.43099
H          4.68789       -1.43814       -4.51603
H          6.07471       -0.85418       -3.59308
H          5.03606        5.47746        2.70577
H          4.07243        5.29738        4.17329
H          5.58631        4.40841        3.99263
H          1.01164        6.07208       -3.84635
H          1.62155        4.96068       -5.06863
H         -0.04307        5.54037       -5.15763
H         -7.55916       -0.40750       -1.49289
H         -7.60418        0.85913       -0.26461
H         -7.56039        1.29152       -1.97112
