105
-153.06616010
Cl        -0.01900        1.88015        3.07759
Pd        -0.45290        1.28771        0.94629
P         -1.13664        0.50320       -1.16809
N         -0.75587       -1.02178       -1.96447
C          0.18038       -1.99602       -1.61793
C          0.32454       -2.47296       -0.29050
C          1.29510       -3.45822       -0.01365
C          1.42133       -3.98382        1.39666
C          2.24891       -5.27175        1.52786
C          3.52100       -5.19318        0.67920
C          3.16997       -4.99471       -0.80268
C          2.09957       -3.95923       -1.04114
C          1.90374       -3.51007       -2.34098
C          0.96083       -2.55833       -2.62715
H          0.83168       -2.20997       -3.63703
H          2.51434       -3.91556       -3.12995
H          4.06601       -4.71382       -1.37101
H          4.13595       -4.35232        1.02402
H          2.49469       -5.47356        2.58004
H          1.86936       -3.19890        2.01662
C         -0.67175       -2.11708        0.74822
C         -0.24453       -1.53514        1.97288
C         -1.17693       -1.39505        3.00503
C         -2.47863       -1.79038        2.84009
C         -2.91724       -2.35366        1.64807
C         -4.35556       -2.80641        1.56542
C         -4.81934       -3.18899        0.15078
C         -3.74034       -3.99652       -0.57492
C         -2.44178       -3.18490       -0.68912
C         -2.01283       -2.52071        0.59702
H         -1.62841       -3.82805       -1.04762
H         -4.09183       -4.31610       -1.56621
H         -5.03553       -2.27981       -0.42353
H         -4.99816       -2.01754        1.97595
H         -3.18149       -1.66872        3.64690
H         -0.86258       -0.94281        3.92927
N          1.05685       -1.04490        2.15873
P          1.62404        0.18995        1.03566
C          2.61704       -0.33696       -0.34835
C          2.37804        0.22757       -1.57639
C          3.18124       -0.10680       -2.65107
C          4.23764       -0.99417       -2.49206
C          4.46960       -1.54155       -1.23657
C          3.66424       -1.20621       -0.16287
H          3.84414       -1.61759        0.81768
H          5.28200       -2.23570       -1.10577
C          5.07584       -1.38936       -3.65716
H          2.98744        0.31619       -3.62178
H          1.55714        0.91532       -1.68840
C          2.55756        1.48478        1.85728
C          3.27219        1.20553        2.99724
C          3.99277        2.21010        3.61763
C          3.99908        3.49858        3.10014
C          3.28663        3.75432        1.93617
C          2.56762        2.74870        1.31592
H          2.01160        2.94477        0.41215
H          3.29693        4.74663        1.51869
C          4.79016        4.57546        3.75738
H          4.55593        1.99834        4.51044
H          3.27154        0.20347        3.39459
H          1.21668       -0.62729        3.06640
H         -1.03473       -0.94055       -2.93415
C         -0.63672        1.85826       -2.24354
C         -0.88337        3.15862       -1.87396
C         -0.48343        4.20042       -2.68841
C          0.17456        3.94810       -3.88399
C          0.40308        2.62949       -4.25227
C         -0.00152        1.59070       -3.43413
H          0.19381        0.56990       -3.71614
H          0.90191        2.42122       -5.18340
C          0.58880        5.06822       -4.77354
H         -0.68070        5.21856       -2.39916
H         -1.39288        3.35287       -0.94554
C         -2.93126        0.53872       -1.09886
C         -3.61827        0.78986       -2.26288
C         -5.00174        0.81225       -2.25537
C         -5.70507        0.59425       -1.07863
C         -4.99333        0.33377        0.08373
C         -3.61151        0.29709        0.06943
H         -3.05654        0.09420        0.97111
H         -5.52884        0.16160        1.00150
C         -7.19395        0.59538       -1.06991
H         -5.54372        1.00277       -3.16586
H         -3.06905        0.96834       -3.17418
Cl        -2.25590        2.64227        0.93249
H          2.83621       -5.94616       -1.23371
H          1.64565       -6.12677        1.19775
H          4.14105       -6.08989        0.81984
H          0.41527       -4.14208        1.80516
H         -3.54318       -4.92172       -0.01901
H         -2.56367       -2.40896       -1.45342
H         -4.48519       -3.66367        2.23689
H         -5.76633       -3.74593        0.18580
H          4.64853       -2.25536       -4.16461
H          5.15047       -0.57738       -4.38185
H          6.08837       -1.64820       -3.34439
H          5.81008        4.59794        3.37110
H          4.34232        5.55485        3.58345
H          4.84158        4.42293        4.83633
H          0.82942        5.96149       -4.19538
H          1.47281        4.80303       -5.35518
H         -0.20949        5.32393       -5.47159
H         -7.58287       -0.40953       -1.24010
H         -7.58089        0.94869       -0.11310
H         -7.59222        1.24738       -1.84854
