111
-148.54912265
P         -2.68660        1.87917       -0.11981
P          0.14333        0.54921        0.36152
C         -1.85304        2.07267        1.48484
C         -0.59570        1.53950        1.66930
C         -3.79210        3.33146       -0.44793
C         -3.48056        3.99578       -1.77052
C         -2.47008        2.74218        2.52307
H         -3.46233        3.13954        2.38753
C         -1.81956        2.88401        3.73679
H         -2.30160        3.40753        4.54625
C         -0.55618        2.35347        3.91391
H         -0.05159        2.46115        4.85994
C          0.05599        1.67263        2.87717
H          1.03321        1.23292        3.00301
Pd        -1.02070        1.13122       -1.55265
Cl        -2.45147        1.47463       -3.24018
Cl         0.64578        0.21961       -2.75349
C         -5.20484        2.71400       -0.37484
C         -3.92465        0.50406       -0.14358
H         -4.09730        4.88351       -1.92930
H         -2.43186        4.29624       -1.82772
H         -3.67401        3.31270       -2.59820
H         -5.87399        3.24742       -1.06562
H         -5.63053        2.86988        0.62732
H         -3.54738       -0.25415       -0.84381
C         -5.18988        1.19231       -0.69484
C         -4.09802       -0.08987        1.23712
H         -3.62810        4.04250        0.37259
H         -6.08439        0.70047       -0.28540
H         -5.24497        1.05078       -1.78439
H         -3.15271       -0.47877        1.62059
H         -4.45068        0.66693        1.94035
H         -4.82369       -0.90678        1.23538
C         -1.35512       -3.73064        0.79063
C         -0.83818       -3.28083       -0.45078
C         -0.39169       -1.97479       -0.53579
C         -0.37952       -1.15417        0.56012
C         -0.76767       -1.62059        1.78854
C         -1.22529       -2.91824        1.94659
O         -2.04147       -4.97157        0.86725
C         -0.80162       -4.16013       -1.70955
H         -0.06007       -1.56565       -1.47363
H         -0.72706       -0.94589        2.62542
C         -1.60590       -3.41286        3.35088
C          4.67398        0.91251        0.09850
C          3.86851        2.07705        0.01133
C          2.49472        1.93703        0.12823
C          1.92139        0.69891        0.25437
C          2.68760       -0.43685        0.22758
C          4.06555       -0.36834        0.11163
O          6.08553        1.02986        0.20467
C          4.46589        3.47823       -0.19260
H          1.84834        2.79799        0.12322
H          2.18914       -1.38792        0.29629
C          4.87242       -1.67247        0.01298
C          0.39629       -3.77384       -2.60737
C         -0.62862       -5.64607       -1.34743
C         -2.09897       -3.95367       -2.50617
C         -3.08400       -3.09444        3.62310
C         -1.35567       -4.92547        3.49138
C         -0.74518       -2.71208        4.42647
C         -3.43906       -4.87195        0.62318
H          0.27493       -2.78215       -3.04029
H          1.32582       -3.78847       -2.03938
H          0.49978       -4.47331       -3.43648
H         -1.47684       -6.01759       -0.77813
H         -0.53894       -6.25986       -2.24336
H          0.26740       -5.79200       -0.74503
H         -2.97090       -4.22912       -1.91748
H         -2.21104       -2.90866       -2.79472
H         -2.10033       -4.55655       -3.41381
H         -3.38332       -3.44635        4.61001
H         -3.26158       -2.02028        3.58180
H         -3.73125       -3.56611        2.88759
H         -1.99213       -5.49666        2.82009
H         -0.31970       -5.16656        3.25555
H         -1.56031       -5.26413        4.50672
H         -0.92113       -3.15042        5.40858
H          0.31591       -2.81325        4.19988
H         -0.98020       -1.65151        4.50349
H         -3.98820       -5.25147        1.48475
H         -3.72063       -3.83401        0.44055
H         -3.70398       -5.47733       -0.24347
C          6.56128        1.11332        1.54206
C          5.75058        3.41455       -1.03892
C          3.47358        4.38869       -0.95111
C          4.76397        4.10903        1.17579
C          5.24747       -2.14775        1.42459
C          4.03762       -2.77705       -0.67533
C          6.14137       -1.47563       -0.83613
H          6.13599        4.41323       -1.24268
H          6.53360        2.85765       -0.53028
H          5.55732        2.92408       -1.99238
H          3.94114        5.33781       -1.21215
H          3.14104        3.91430       -1.87410
H          2.59668        4.61991       -0.34831
H          3.85423        4.18633        1.77078
H          5.47715        3.51121        1.73821
H          5.17945        5.10999        1.06211
H          5.85285       -1.40720        1.94188
H          4.35325       -2.32133        2.02283
H          5.81366       -3.07801        1.38579
H          3.20063       -3.09614       -0.05596
H          3.64513       -2.42635       -1.62951
H          4.64692       -3.65979       -0.86785
H          6.67842       -2.41534       -0.96255
H          6.82313       -0.76707       -0.37238
H          5.88563       -1.09499       -1.82441
H          5.72840        1.07832        2.24545
H          7.24048        0.28457        1.74110
H          7.11190        2.04425        1.67635
