105
-153.06716449
Cl         0.02227        1.87787        3.07636
Pd        -0.49172        1.26928        0.96673
P         -1.12986        0.49711       -1.16044
N         -0.75548       -1.02252       -1.96789
C          0.17770       -2.00100       -1.62618
C          0.32586       -2.48051       -0.29994
C          1.29644       -3.46721       -0.02836
C          1.42793       -3.99376        1.38117
C          2.25987       -5.27923        1.50973
C          3.52722       -5.19903        0.65413
C          3.16760       -5.00334       -0.82602
C          2.09682       -3.96724       -1.05951
C          1.89717       -3.51551       -2.35789
C          0.95407       -2.56249       -2.63909
H          0.82237       -2.21161       -3.64777
H          2.50597       -3.91870       -3.14946
H          4.06047       -4.72439       -1.40027
H          4.14220       -4.35637        0.99444
H          2.51191       -5.47866        2.56087
H          1.87455       -3.20774        2.00079
C         -0.66588       -2.12686        0.74404
C         -0.23407       -1.54536        1.96786
C         -1.16078       -1.41421        3.00652
C         -2.46192       -1.81392        2.84735
C         -2.90573       -2.37304        1.65523
C         -4.34406       -2.82667        1.57783
C         -4.81388       -3.20792        0.16474
C         -3.73609       -4.00987       -0.56895
C         -2.44072       -3.19385       -0.68775
C         -2.00662       -2.53369        0.59863
H         -1.62759       -3.83328       -1.05338
H         -4.09176       -4.32782       -1.55927
H         -5.03688       -2.29840       -0.40642
H         -4.98526       -2.03841        1.99181
H         -3.16064       -1.69790        3.65858
H         -0.84308       -0.96359        3.93040
N          1.06292       -1.04005        2.14385
P          1.60490        0.18983        1.00315
C          2.61625       -0.35597       -0.36076
C          2.40137        0.19753       -1.59807
C          3.21998       -0.15296       -2.65585
C          4.26034       -1.05464       -2.47277
C          4.48041       -1.57508       -1.20384
C          3.65936       -1.22375       -0.14733
H          3.82539       -1.61947        0.84207
H          5.29687       -2.25938       -1.04867
C          5.14564       -1.43056       -3.60898
H          3.05189        0.26980       -3.63145
H          1.58889        0.89165       -1.72945
C          2.53312        1.50599        1.79756
C          3.26311        1.25251        2.93374
C          3.97821        2.27494        3.53082
C          3.97383        3.55242        2.98647
C          3.23149        3.78613        1.83670
C          2.51786        2.76278        1.23974
H          1.94310        2.94016        0.34380
H          3.21197        4.77596        1.41368
C          4.71606        4.66158        3.64701
H          4.54297        2.08642        4.42782
H          3.27528        0.25759        3.34837
H          1.22469       -0.61450        3.04744
H         -1.02759       -0.92990       -2.93840
C         -0.61327        1.86534       -2.20939
C         -0.84181        3.15892       -1.80547
C         -0.42887        4.21551       -2.59408
C          0.22233        3.98443       -3.79775
C          0.43010        2.67260       -4.20116
C          0.01319        1.61875       -3.40896
H          0.19162        0.60270       -3.71820
H          0.92267        2.48151       -5.13928
C          0.65045        5.12085       -4.65959
H         -0.61121        5.22857       -2.27846
H         -1.35000        3.33546       -0.87229
C         -2.92492        0.54732       -1.10401
C         -3.60094        0.84107       -2.26451
C         -4.98415        0.87566       -2.26643
C         -5.69832        0.62643       -1.10256
C         -4.99773        0.32253        0.05606
C         -3.61621        0.27482        0.05090
H         -3.07015        0.03988        0.95008
H         -5.54160        0.12557        0.96388
C         -7.18716        0.64145       -1.10594
H         -5.51763        1.10007       -3.17423
H         -3.04339        1.04326       -3.16570
Cl        -2.29191        2.62326        1.00812
H          2.83028       -5.95528       -1.25317
H          1.65714       -6.13643        1.18436
H          4.14999       -6.09421        0.79254
H          0.42330       -4.15560        1.79181
H         -3.53303       -4.93600       -0.01671
H         -2.56897       -2.41520       -1.44832
H         -4.47045       -3.68466        2.24898
H         -5.75852       -3.76858        0.20377
H          5.53387       -2.44275       -3.48655
H          4.60538       -1.39661       -4.55616
H          5.99496       -0.74981       -3.68042
H          4.07563        5.18550        4.35781
H          5.58497        4.28654        4.18958
H          5.07150        5.38810        2.91495
H          0.89954        5.99748       -4.05994
H          1.53272        4.85991       -5.24576
H         -0.14360        5.40171       -5.35279
H         -7.57200        1.34935       -1.84134
H         -7.58377       -0.34552       -1.34811
H         -7.57978        0.93208       -0.13053
