59
-75.80549049
Cl         1.55827        0.57095        2.34613
P          1.58070       -0.01698       -0.79791
P         -1.61333       -0.08705       -0.85733
C          0.63513        0.15363       -2.37187
H          0.37476        1.20715       -2.50453
H          1.28245       -0.13782       -3.20509
C         -0.60141       -0.69319       -2.27850
H         -0.34119       -1.74051       -2.10759
H         -1.20822       -0.64993       -3.18845
C          2.54702       -1.59970       -0.82906
H          2.18515       -2.16756       -1.69464
C          2.99769        1.16565       -0.68933
H          3.20807        1.28815        0.38046
C         -2.96962       -1.25532       -0.36141
H         -3.00440       -1.22719        0.73435
C         -2.65277        1.33036       -1.46440
H         -2.57154        1.26464       -2.55808
C          4.01191       -1.14764       -1.03080
H          4.57256       -1.35359       -0.10908
H          4.49868       -1.75480       -1.80827
C          4.12665        0.36694       -1.36157
H          4.06410        0.51613       -2.44889
H          5.10898        0.76536       -1.06360
C         -4.23421       -0.60068       -0.94379
H         -4.42048       -1.01775       -1.94303
H         -5.11625       -0.86947       -0.34276
C         -4.07995        0.93962       -1.04538
H         -4.31153        1.38918       -0.07211
H         -4.81486        1.36386       -1.74629
C          2.32511       -2.38570        0.45813
H          1.24834       -2.48342        0.64530
H          2.70384       -1.79259        1.30168
C          2.69993        2.52036       -1.31714
H          3.63322        3.09447       -1.40044
H          2.36249        2.36886       -2.35037
C         -2.74196       -2.68786       -0.83090
H         -3.66963       -3.26070       -0.69301
H         -2.56588       -2.68354       -1.91429
C         -2.19158        2.71385       -1.00613
H         -1.17495        2.88463       -1.38257
H         -2.80901        3.47463       -1.50369
C          2.97586       -3.76092        0.43883
H          2.80315       -4.30841        1.36820
H          4.05556       -3.68914        0.29698
H          2.58431       -4.36950       -0.37855
C          1.66983        3.30987       -0.52493
H          0.75297        2.73495       -0.39438
H          1.40706        4.25230       -1.01061
H          2.03725        3.54490        0.47586
C         -1.59812       -3.37642       -0.10433
H         -0.66213       -2.83699       -0.24334
H         -1.44294       -4.39913       -0.45542
H         -1.78295       -3.42101        0.97068
C         -2.22853        2.94286        0.49763
H         -1.81034        3.91440        0.77142
H         -3.24580        2.91264        0.88987
H         -1.65860        2.18532        1.03311
Cl        -1.70892        0.06708        2.34476
Pd        -0.03983        0.09809        0.84750
