45
-71.81491052
C          2.31085        1.27393        2.44763
P          1.52859        0.87708        0.84887
P         -1.02571        0.14683       -0.91540
C         -0.37694       -0.35965       -2.54379
Cl         1.51098       -1.89105        2.26080
H          3.00714        2.09914        2.32895
H          0.68922       -0.15843       -2.59485
Cl        -1.29707       -2.66817        0.44209
C          0.45966        2.19340        0.22551
C         -0.62850        1.87123       -0.55759
C         -1.42951        2.86648       -1.07798
C         -1.13592        4.19289       -0.81457
C         -0.04166        4.51645       -0.03596
C          0.76049        3.51511        0.48267
H         -2.27983        2.59816       -1.68455
H         -1.76054        4.97252       -1.21854
H          0.18991        5.54936        0.16578
H          1.62383        3.75721        1.08096
Pd         0.13390       -0.96974        0.74523
H         -0.87813        0.19450       -3.33224
H          2.85174        0.40734        2.81690
H         -0.54022       -1.42299       -2.69429
C         -5.47519       -0.59808       -0.33296
C         -4.74271        0.06664        0.63045
C         -3.39131        0.29067        0.43510
C         -2.78474       -0.14793       -0.71990
C         -3.50979       -0.81443       -1.68131
C         -4.86095       -1.03951       -1.48832
H         -6.52739       -0.77573       -0.18139
H         -5.22034        0.40758        1.53424
H         -2.80340        0.80464        1.17971
H         -3.01872       -1.16177       -2.57564
H         -5.43206       -1.56256       -2.23771
C          4.50121       -0.35270       -2.36067
C          3.79227        0.82511       -2.49683
C          2.89721        1.20823       -1.51431
C          2.72346        0.41388       -0.40451
C          3.41844       -0.76535       -0.26949
C          4.31497       -1.15081       -1.24883
H          5.19831       -0.65199       -3.12624
H          3.93393        1.44411       -3.36749
H          2.32981        2.11992       -1.60946
H          3.23003       -1.38848        0.59007
H          4.86031       -2.07463       -1.14704
H          1.55028        1.54982        3.17244
