171
-217.84654869
P         -1.58342        0.40450       -0.33249
P          1.63497       -0.43774       -0.27710
C         -0.83831        1.31186       -1.69012
C          0.90107       -1.41598       -1.59598
C         -0.05340        0.65480       -2.63052
C          0.57146        1.41263       -3.63940
C          0.35979        2.78060       -3.68723
C         -0.44285        3.40913       -2.75859
C         -1.03463        2.66937       -1.75344
C          1.08128       -2.77766       -1.56249
C          0.47435       -3.58486       -2.50397
C         -0.32790       -3.01840       -3.47129
C         -0.52347       -1.64845       -3.52428
C          0.11611       -0.82307       -2.57907
Cl         1.55765        0.14880        2.93336
Cl        -1.65954       -0.47601        2.79565
C         -1.40602       -1.07995       -4.58017
C          1.43341        0.76591       -4.66669
H         -0.60798        4.47250       -2.81647
H         -1.65557        3.15137       -1.01541
H          1.70075       -3.21444       -0.79648
H          0.62275       -4.65199       -2.47735
H          0.83220        3.35493       -4.46625
H         -0.81717       -3.64383       -4.19892
C         -3.92046       -3.24380       -1.61367
C         -2.92381       -3.38935       -0.65690
C         -2.21289       -2.25610       -0.28415
C         -2.47708       -1.04649       -0.87534
C         -3.44867       -0.92240       -1.83775
C         -4.20034       -2.02644       -2.22244
H         -4.51220       -4.10125       -1.87571
H         -1.45618       -2.30322        0.47940
H         -3.62206        0.04695       -2.27358
C         -4.35365        3.04353        2.11075
C         -4.90037        2.05313        1.30366
C         -4.02801        1.26842        0.56340
C         -2.67277        1.47645        0.62075
C         -2.14899        2.46027        1.42313
C         -2.98297        3.25597        2.19899
H         -5.00603        3.66586        2.69377
H         -4.41182        0.47644       -0.05500
H         -1.08125        2.59055        1.45320
C          4.48993       -2.89427        2.24953
C          3.13638       -3.20992        2.27250
C          2.28359       -2.46669        1.46748
C          2.76734       -1.43802        0.69831
C          4.10475       -1.12958        0.70033
C          4.99794       -1.85980        1.47342
H          5.17202       -3.45842        2.85722
H          1.22725       -2.67624        1.45596
H          4.44472       -0.30362        0.10178
C          3.81819        3.31950       -1.53045
C          2.84962        3.40430       -0.53761
C          2.16846        2.24345       -0.19822
C          2.45551        1.05651       -0.82517
C          3.41844        0.98694       -1.80160
C          4.12373        2.12588       -2.17354
H          4.36661        4.20091       -1.80431
H          1.41780        2.26101        0.57314
H          3.62241        0.03292       -2.25729
Pd        -0.00928       -0.00245        1.33449
C         -3.88864       -5.14537        0.84221
C         -2.66837       -4.75707       -0.01042
C         -1.42139       -4.72628        0.89431
C         -2.44147       -5.81365       -1.10819
H         -3.73610       -6.10973        1.32648
H         -4.06729       -4.40126        1.61825
H         -4.78860       -5.21435        0.23191
H         -1.21893       -5.71327        1.30986
H         -0.54337       -4.41446        0.32965
H         -1.55724       -4.04038        1.73008
H         -2.21334       -6.78593       -0.67178
H         -3.32287       -5.93203       -1.73691
H         -1.60859       -5.52848       -1.74984
C         -5.38882       -0.53793       -3.91047
C         -5.36453       -1.91457       -3.21712
C         -6.68701       -2.10300       -2.45233
C         -5.23581       -3.00073       -4.30262
H         -5.55213        0.26370       -3.19083
H         -4.45301       -0.34557       -4.43421
H         -6.19481       -0.48800       -4.64246
H         -7.54206       -2.02092       -3.12307
H         -6.72742       -3.08122       -1.97410
H         -6.79337       -1.34697       -1.67451
H         -5.29587       -4.00125       -3.87675
H         -6.03337       -2.90912       -5.03977
H         -4.28425       -2.91616       -4.82588
C         -6.68836        0.33670        1.67228
C         -6.40856        1.78095        1.21504
C         -6.87150        1.95982       -0.24288
C         -7.21553        2.74283        2.10756
H         -6.34124        0.18305        2.69380
H         -7.75525        0.11659        1.64036
H         -6.18013       -0.38655        1.03545
H         -6.36205        1.26352       -0.90774
H         -7.94329        1.78576       -0.33651
H         -6.66102        2.97032       -0.59253
H         -8.28308        2.53634        2.03200
H         -6.93263        2.63638        3.15465
H         -7.05826        3.77932        1.80971
C         -2.97924        4.09842        4.56486
C         -2.43329        4.33451        3.14363
C         -2.87275        5.71942        2.63783
C         -0.89410        4.29861        3.21205
H         -2.57031        4.82639        5.26530
H         -4.06455        4.18364        4.59569
H         -2.71057        3.10281        4.91755
H         -2.49953        5.89652        1.62917
H         -3.95880        5.80246        2.61193
H         -2.49097        6.51024        3.28333
H         -0.51942        5.03986        3.91772
H         -0.53890        3.32091        3.53770
H         -0.45540        4.52136        2.24121
C          2.11172       -5.49015        2.21867
C          2.56271       -4.34139        3.13672
C          1.35826       -3.81395        3.94266
C          3.60694       -4.88245        4.13238
H          1.67562       -6.30528        2.79584
H          1.36682       -5.14770        1.50238
H          2.95578       -5.88710        1.65497
H          1.64831       -2.95674        4.54979
H          0.54491       -3.49949        3.29063
H          0.96707       -4.58319        4.60808
H          3.17013       -5.64946        4.77183
H          4.45188       -5.33343        3.61264
H          3.98085       -4.08642        4.77611
C          7.29663       -2.78294        1.07265
C          6.49891       -1.53880        1.50469
C          6.89920       -1.13332        2.93475
C          6.85140       -0.37986        0.55063
H          7.00452       -3.09809        0.07106
H          8.36664       -2.57595        1.06279
H          7.12596       -3.61906        1.74967
H          6.32577       -0.26642        3.26256
H          6.71538       -1.94193        3.64122
H          7.95754       -0.87840        2.98674
H          7.92053       -0.16952        0.57512
H          6.58685       -0.62566       -0.47767
H          6.32988        0.53450        0.83324
C          1.08677        5.13957       -0.15797
C          2.52114        4.71215        0.19624
C          3.48394        5.84769       -0.20048
C          2.63851        4.48800        1.71660
H          0.80010        6.04098        0.38336
H          1.00225        5.34573       -1.22429
H          0.37205        4.35548        0.08702
H          3.25341        6.75946        0.35049
H          4.51707        5.57950        0.01994
H          3.40472        6.07786       -1.26274
H          3.64365        4.15945        1.97978
H          2.42937        5.40696        2.26386
H          1.93949        3.72904        2.06458
C          4.96892        3.11191       -4.32659
C          5.25472        2.08845       -3.21141
C          5.39432        0.69305       -3.85076
C          6.58341        2.44055       -2.51726
H          5.74356        3.07912       -5.09256
H          4.01289        2.90686       -4.80614
H          4.93385        4.12767       -3.93501
H          5.64236       -0.05906       -3.10208
H          4.47244        0.39375       -4.34794
H          6.18878        0.68742       -4.59690
H          7.41327        2.40863       -3.22302
H          6.55031        3.43999       -2.08490
H          6.79655        1.73634       -1.71358
H         -1.69996       -0.05557       -4.34770
H          0.87372        0.58074       -5.58436
H         -2.31814       -1.66887       -4.67877
H         -0.90410       -1.07732       -5.54864
H          1.82714       -0.18763       -4.31204
H          2.28318        1.40049       -4.91836
