111
-148.55687771
P         -2.66404        1.82752        0.63346
P          0.20375        0.49940        0.44761
C         -1.71911        1.51068        2.14830
C         -0.44323        0.99635        2.05898
C         -3.65635        3.38444        0.76520
C         -2.99565        4.53698        0.04097
C         -2.26664        1.78464        3.38553
H         -3.27173        2.16756        3.45132
C         -1.52862        1.55080        4.53294
H         -1.95551        1.76438        5.49928
C         -0.24713        1.04302        4.44113
H          0.32715        0.85907        5.33422
C          0.29464        0.76020        3.20055
H          1.28695        0.34790        3.11542
Pd        -1.14584        1.59764       -1.09234
Cl        -2.73522        2.44655       -2.42944
Cl         0.40346        1.25745       -2.67759
C         -5.02297        2.95864        0.19838
C         -4.01229        0.60325        0.29666
H         -3.58663        5.45198        0.12429
H         -1.99937        4.73821        0.44177
H         -2.88202        4.31588       -1.02081
H         -5.03486        3.16174       -0.88145
H         -5.82631        3.57824        0.62546
H         -3.87970        0.28724       -0.74686
C         -5.29397        1.44626        0.44369
C         -3.93193       -0.58391        1.23178
H         -3.74500        3.60738        1.83593
H         -5.69345        1.30719        1.45765
H         -6.07658        1.07348       -0.23437
H         -4.74559       -1.29041        1.05212
H         -2.98855       -1.11917        1.11091
H         -3.99439       -0.26204        2.27289
C         -1.39032       -3.68849       -0.35537
C         -1.03404       -2.85020       -1.44233
C         -0.53547       -1.59145       -1.15961
C         -0.34290       -1.17761        0.13142
C         -0.57867       -2.02450        1.18189
C         -1.05892       -3.30593        0.97022
O         -2.11891       -4.88442       -0.59127
C         -1.23928       -3.25701       -2.90897
H         -0.30642       -0.89781       -1.94934
H         -0.40424       -1.66130        2.17957
C         -1.24799       -4.23562        2.17831
C          4.74666        0.59683        0.14162
C          4.10536       -0.39879        0.92588
C          2.72093       -0.40394        0.97148
C          1.98761        0.57907        0.35917
C          2.60679        1.61413       -0.29030
C          3.98730        1.67291       -0.39008
O          6.12361        0.47202       -0.17592
C          4.85275       -1.46423        1.74617
H          2.19573       -1.19552        1.47953
H          1.99292        2.36965       -0.75039
C          4.60481        2.89845       -1.08445
C         -0.19546       -2.56812       -3.81772
C         -1.06568       -4.77509       -3.09378
C         -2.64245       -2.82327       -3.36041
C         -0.17449       -3.94867        3.25335
C         -2.63617       -3.99605        2.79135
C         -1.09269       -5.71315        1.77512
C         -3.53052       -4.71687       -0.54371
H          0.81507       -2.74445       -3.45030
H         -0.25400       -2.95349       -4.83530
H         -0.35675       -1.49266       -3.87467
H         -1.15092       -5.05433       -4.14365
H         -0.08803       -5.09570       -2.73548
H         -1.82104       -5.33055       -2.54348
H         -3.41437       -3.30260       -2.76307
H         -2.76420       -1.74523       -3.25590
H         -2.81458       -3.08292       -4.40455
H         -0.22217       -4.68621        4.05419
H          0.82545       -3.98712        2.82167
H         -0.31193       -2.97047        3.71162
H         -2.79975       -4.64361        3.65233
H         -2.73829       -2.96291        3.12273
H         -3.42521       -4.19107        2.06869
H         -1.16040       -6.36609        2.64494
H         -1.86653       -6.01745        1.07505
H         -0.12728       -5.88119        1.29895
H         -3.94742       -5.33635        0.25008
H         -3.78400       -3.67205       -0.35978
H         -3.96776       -5.03524       -1.48997
C          6.35014       -0.29394       -1.34764
C          4.24677       -1.53439        3.16589
C          4.69924       -2.83540        1.06730
C          6.34646       -1.13479        1.91178
C          4.36930        2.79460       -2.60069
C          3.93121        4.18453       -0.55660
C          6.11154        3.03462       -0.80434
H          4.80703       -2.22689        3.79361
H          4.27012       -0.55475        3.64246
H          3.21326       -1.87648        3.14929
H          5.19958       -3.61313        1.64371
H          3.64861       -3.10947        0.97566
H          5.12905       -2.83040        0.06756
H          6.47569       -0.13651        2.32848
H          6.83461       -1.84699        2.57665
H          6.86607       -1.16712        0.95719
H          4.84681        1.90814       -3.01332
H          3.30502        2.73195       -2.82567
H          4.77178        3.66481       -3.11838
H          4.40631        5.07132       -0.97536
H          2.87626        4.22782       -0.82182
H          4.00971        4.24198        0.52867
H          6.50727        3.95912       -1.22417
H          6.67026        2.21040       -1.24111
H          6.30427        3.03768        0.26790
H          7.42284       -0.36597       -1.52840
H          5.93718       -1.29395       -1.22694
H          5.87221        0.18084       -2.20283
