72
-108.40445954
Cl        -1.77589        0.78289        2.68873
Cl         1.00879       -0.76105        2.76077
P          1.11049       -1.14359       -0.29605
P         -2.25405        0.11175       -0.37472
C         -3.24182       -1.49275       -0.15167
C         -3.60304       -1.65987        1.32568
C         -4.50418       -1.45171       -1.00535
C         -3.34186        1.65406       -0.11546
C         -4.15135        1.95361       -1.38417
C         -1.45079        0.42227       -2.05433
C         -1.50859       -0.73546       -3.02911
C          1.12733        0.21922       -1.49956
C         -0.03684        0.96788       -1.97088
C          0.46774        2.07157       -2.78977
C          1.91514        1.98575       -2.83425
C          2.32088        0.83171       -2.05371
C         -2.37367       -2.67610       -0.55595
H         -2.71468       -1.63430        1.95681
H         -4.28391       -0.88856        1.67512
H         -5.19609       -0.68528       -0.66035
H         -5.03076       -2.40623       -0.95669
C         -4.30482        1.50321        1.05839
H         -4.63323        1.06052       -1.77791
H         -3.53487        2.38321       -2.17297
H         -2.06049        1.22934       -2.47068
H         -0.85346       -1.53996       -2.70362
H         -1.15585       -0.43208       -4.01698
H         -2.51720       -1.12903       -3.14938
H         -0.14920        2.77356       -3.35402
H          2.58117        2.64798       -3.39242
Pd        -0.50478       -0.26080        1.17040
H          3.34279        0.49568       -1.86393
C         -2.37929        2.80064        0.15719
H         -4.93368        2.68464       -1.17326
H         -5.09070        0.78177        0.84269
H         -3.78639        1.20043        1.96558
H         -4.79735        2.45322        1.27069
H         -1.61595        2.86446       -0.61963
H         -2.90792        3.75540        0.18976
H         -1.88673        2.66602        1.11896
H         -4.09587       -2.61900        1.49301
H         -4.27424       -1.25511       -2.05143
H         -1.44393       -2.67480        0.01018
H         -2.88275       -3.61882       -0.34805
H         -2.13714       -2.67039       -1.61677
C          2.78221       -1.24140        0.39735
C          3.23677       -2.24810        1.21256
C          4.55993       -1.94816        1.53627
C          4.86084       -0.76879        0.90119
O          3.77877       -0.32470        0.19778
H          2.66842       -3.09746        1.55342
H          5.21590       -2.52700        2.16577
H          5.81149       -0.25171        0.94356
C          0.74363       -2.74261       -1.04260
C          0.65556       -3.91005       -0.32482
C          0.36373       -4.92770       -1.23407
C          0.28690       -4.33735       -2.47161
O          0.51469       -2.99468       -2.36775
H          0.76963       -4.01030        0.74256
H          0.22539       -5.97251       -1.00870
H          0.07532       -4.84704       -3.40341
Fe         1.29800        2.11599       -0.91216
C          2.98097        2.81406        0.07334
C          2.15688        2.00360        0.94768
C          0.85703        2.63162        1.04240
C          0.86949        3.83134        0.22824
C          2.18218        3.93837       -0.37926
H          4.02186        2.61292       -0.18931
H          2.45892        1.08501        1.45421
H          0.04602        2.28599        1.68539
H          0.05292        4.54796        0.12147
H          2.52098        4.74189       -1.03636
