171
-217.83852774
P         -1.64175        0.75364        0.36527
P          1.42697       -0.26697       -0.36676
C         -0.92952        1.82252       -0.90613
C          0.44725       -0.94593       -1.71869
C         -0.38040        1.36516       -2.09829
C          0.23752        2.29304       -2.95782
C          0.26040        3.63268       -2.60837
C         -0.29651        4.06902       -1.42575
C         -0.88235        3.15541       -0.57127
C          0.52222       -2.27789       -2.04601
C         -0.23624       -2.77988       -3.08530
C         -1.08333       -1.94341       -3.78205
C         -1.18515       -0.59989       -3.46012
C         -0.38014       -0.08343       -2.42647
Cl         2.31116        1.15236        2.55751
Cl        -0.73306        0.70510        3.51341
C         -2.12213        0.27716       -4.21478
C          0.88687        1.86862       -4.22848
H         -0.26669        5.11384       -1.16310
H         -1.29910        3.47776        0.37172
H          1.16908       -2.92996       -1.48470
H         -0.17060       -3.82272       -3.34895
H          0.73388        4.33641       -3.27222
H         -1.67456       -2.33289       -4.59324
C         -3.03995       -3.41799       -0.71782
C         -3.72462       -2.31480       -1.20824
C         -3.24109       -1.05634       -0.87611
C         -2.13244       -0.91938       -0.07728
C         -1.47844       -2.02395        0.41820
C         -1.91643       -3.30237        0.09130
H         -3.40443       -4.39918       -0.96014
H         -3.73684       -0.16894       -1.22781
H         -0.62184       -1.88305        1.05217
C         -5.45376        2.78126        1.75280
C         -4.60748        2.24505        2.71646
C         -3.43552        1.64217        2.28445
C         -3.12393        1.58647        0.95087
C         -3.96748        2.12787        0.01155
C         -5.15652        2.73557        0.39607
H         -6.37067        3.24879        2.05883
H         -2.74687        1.22249        2.99459
H         -3.68479        2.07596       -1.02625
C          3.89693       -3.59398        1.53570
C          4.00461       -3.33769        0.17466
C          3.23251       -2.31331       -0.35636
C          2.36327       -1.59787        0.43043
C          2.26987       -1.87483        1.77427
C          3.04271       -2.86997        2.35678
H          4.50268       -4.36265        1.97736
H          3.31521       -2.07067       -1.40163
H          1.60240       -1.29890        2.38596
C          4.49158        2.56185       -2.14287
C          4.20182        1.37369       -2.80268
C          3.24966        0.53339       -2.23694
C          2.63380        0.86829       -1.05568
C          2.93584        2.04455       -0.41923
C          3.86490        2.92367       -0.95623
H          5.23891        3.20966       -2.56041
H          2.97081       -0.38590       -2.72192
H          2.46249        2.26837        0.51970
Pd         0.36761        0.66232        1.54948
C         -4.63235       -3.26365       -3.34581
C         -4.99079       -2.50704       -2.05491
C         -5.62883       -1.15642       -2.43670
C         -6.02266       -3.31709       -1.24788
H         -5.51674       -3.42490       -3.96196
H         -3.91157       -2.69832       -3.93453
H         -4.19534       -4.23702       -3.12584
H         -4.94415       -0.55108       -3.02955
H         -6.53107       -1.30784       -3.02905
H         -5.90845       -0.59099       -1.54792
H         -5.64455       -4.30839       -1.00110
H         -6.26491       -2.80898       -0.31461
H         -6.94619       -3.44461       -1.81239
C         -0.89365       -5.51803       -0.53389
C         -1.24470       -4.57348        0.63172
C         -2.21471       -5.27883        1.59623
C          0.05427       -4.25314        1.38965
H         -1.78180       -5.82273       -1.08545
H         -0.21424       -5.03168       -1.23227
H         -0.40553       -6.42122       -0.16800
H         -1.76619       -6.18147        2.01084
H         -2.47874       -4.62138        2.42442
H         -3.13582       -5.56434        1.08917
H          0.76355       -3.74004        0.74263
H         -0.14072       -3.62646        2.25909
H          0.53143       -5.16810        1.73945
C         -4.99755        0.85771        4.76718
C         -4.91568        2.29477        4.21961
C         -6.25255        3.00509        4.50554
C         -3.79061        3.05969        4.94191
H         -5.23299        0.85828        5.83125
H         -5.77204        0.29211        4.24955
H         -4.05365        0.33001        4.63541
H         -7.08291        2.48583        4.02737
H         -6.45418        3.03277        5.57633
H         -6.23448        4.03410        4.14694
H         -3.98996        3.12948        6.01102
H         -2.82920        2.56350        4.81457
H         -3.69900        4.07168        4.54813
C         -5.60985        3.17961       -2.06901
C         -6.13308        3.33316       -0.62673
C         -6.32202        4.83291       -0.33445
C         -7.48650        2.60669       -0.52050
H         -4.65548        3.69025       -2.19684
H         -5.47787        2.12964       -2.32946
H         -6.31203        3.60973       -2.78303
H         -6.74212        4.99379        0.65767
H         -5.36767        5.35705       -0.38290
H         -6.99547        5.28981       -1.05940
H         -8.19648        2.99566       -1.25019
H         -7.36551        1.53910       -0.70313
H         -7.92506        2.72888        0.46917
C          5.69735       -5.23147        0.00593
C          4.93947       -4.12566       -0.75296
C          5.96823       -3.16153       -1.37276
C          4.10569       -4.78232       -1.86974
H          5.00509       -5.94269        0.45627
H          6.34856       -5.78681       -0.66901
H          6.32206       -4.80983        0.79313
H          6.65790       -3.69390       -2.02750
H          5.47931       -2.38748       -1.96280
H          6.55165       -2.66919       -0.59501
H          3.59566       -4.03458       -2.47611
H          4.73768       -5.37295       -2.53266
H          3.34849       -5.44259       -1.44702
C          1.96676       -2.26246        4.58541
C          3.02291       -3.13041        3.87085
C          4.40681       -2.78700        4.45119
C          2.69995       -4.61080        4.14419
H          2.17970       -1.20091        4.46093
H          0.96706       -2.46075        4.20015
H          1.95491       -2.47044        5.65506
H          4.65746       -1.74498        4.25319
H          4.42768       -2.94083        5.52990
H          5.18511       -3.40806        4.00908
H          3.43671       -5.27080        3.68826
H          2.68988       -4.81455        5.21481
H          1.72109       -4.87335        3.74567
C          6.43965        0.69612       -3.68425
C          4.97809        0.98585       -4.07023
C          4.93451        2.13742       -5.09311
C          4.38538       -0.27249       -4.73552
H          7.02392        0.40243       -4.55612
H          6.91050        1.57486       -3.24454
H          6.49245       -0.11110       -2.95398
H          5.46821        1.86656       -6.00401
H          3.90786        2.37627       -5.36700
H          5.39606        3.04151       -4.69872
H          3.33790       -0.12176       -4.99540
H          4.92273       -0.51446       -5.65236
H          4.45678       -1.13825       -4.07767
C          5.21153        5.08418       -0.96370
C          4.17282        4.23018       -0.21226
C          4.72798        3.89728        1.18523
C          2.87621        5.04933       -0.07251
H          6.15847        4.55383       -1.06239
H          4.85573        5.34680       -1.95985
H          5.40867        6.01273       -0.42805
H          4.97239        4.80587        1.73504
H          4.00485        3.33536        1.77514
H          5.63301        3.29548        1.10626
H          2.12160        4.50342        0.49264
H          3.06241        5.99092        0.44353
H          2.45961        5.27798       -1.05310
H         -3.00941       -0.27412       -4.52915
H          1.88779        2.29382       -4.30588
H         -1.64540        0.67919       -5.10957
H         -2.45565        1.11650       -3.60241
H          0.31184        2.20496       -5.09240
H          0.98497        0.78421       -4.28824
