87
-129.18131428
P         -1.52986       -0.27597       -0.42584
P          1.71480        0.29810        0.24275
C         -1.08938        0.96980       -1.64204
C          1.52033       -0.80692       -1.17938
C          0.01090        0.73584       -2.45655
C          0.36324        1.70339       -3.41847
C         -0.40977        2.84747       -3.53430
C         -1.50324        3.05610       -2.71894
C         -1.84110        2.11171       -1.76958
C          2.14117       -2.02380       -1.01927
C          2.03830       -2.99663       -1.99474
C          1.29449       -2.74769       -3.12703
C          0.64242       -1.53915       -3.30153
C          0.76169       -0.53933       -2.31693
Cl         0.92642       -0.12595        3.36740
Cl        -1.64073       -1.90653        2.37698
H         -2.08962        3.95471       -2.81886
H         -2.69596        2.26168       -1.13149
H          2.70390       -2.21409       -0.11735
H          2.52877       -3.94739       -1.86507
H         -0.14035        3.58532       -4.27082
H          1.19974       -3.50614       -3.88560
C         -2.45806       -4.18299       -2.55010
C         -1.63248       -4.20096       -1.43424
C         -1.38067       -3.00327       -0.77691
C         -1.91554       -1.82538       -1.24310
C         -2.72800       -1.81406       -2.35251
C         -3.00484       -2.99995       -3.00730
H         -2.67082       -5.10747       -3.05930
C         -1.05468       -5.47438       -0.92593
H         -0.76365       -2.99642        0.10538
H         -3.13298       -0.87798       -2.70412
H         -3.64167       -2.99899       -3.87667
C         -5.15738        1.09261        1.97076
C         -5.22424       -0.06243        1.21756
C         -4.12574       -0.47193        0.48607
C         -2.97276        0.27733        0.50675
C         -2.90369        1.42723        1.25861
C         -3.99458        1.84991        2.00793
H         -6.01177        1.41355        2.54196
H         -6.12933       -0.64726        1.20352
H         -4.16014       -1.37878       -0.09520
H         -1.99617        2.00520        1.26351
C         -3.91615        3.09820        2.81431
C          6.06538       -0.04982        1.54852
C          5.74566        0.13185        0.21743
C          4.42121        0.23740       -0.16594
C          3.42774        0.15556        0.78260
C          3.74736       -0.02286        2.10703
C          5.07090       -0.12188        2.51377
H          7.09550       -0.13847        1.84912
H          6.52665        0.18901       -0.52299
H          4.15605        0.37233       -1.20287
H          2.95818       -0.08776        2.83412
C          5.40725       -0.34277        3.94675
C          0.80951        4.71932       -0.30433
C          1.67952        4.08907       -1.17188
C          1.96530        2.74679       -1.00707
C          1.36962        2.04578        0.01427
C          0.53400        2.68045        0.90477
C          0.23554        4.02923        0.75421
H          0.57520        5.76172       -0.43778
H          2.12814        4.63940       -1.98258
H          2.63835        2.23817       -1.67804
H          0.14698        2.13415        1.74815
C         -0.69761        4.71399        1.68884
Pd        -0.13732       -0.53211        1.44115
C          1.54746        1.52558       -4.30322
C         -0.18198       -1.33430       -4.52537
H          1.23913        1.30430       -5.32576
H          2.15555        2.43111       -4.32530
H          2.18459        0.71009       -3.95889
H          0.44916       -1.11566       -5.38752
H         -0.76489       -2.22744       -4.75471
H         -0.88426       -0.50935       -4.40185
H         -0.06983       -5.30880       -0.48650
H         -1.69603       -5.91146       -0.15942
H         -0.94059       -6.20454       -1.72839
H         -2.98005        3.14212        3.37265
H         -3.97092        3.97877        2.17281
H         -4.73299        3.15715        3.53487
H          4.67220        0.13050        4.59941
H          5.42673       -1.40825        4.17981
H          6.38509        0.07434        4.19151
H         -1.69954        4.77039        1.26135
H         -0.76376        4.18304        2.63942
H         -0.36415        5.73082        1.90074
