111
-148.55516211
P         -2.16980        2.55097       -0.15093
P         -0.19165        0.17809        0.54744
C         -1.77725        2.18783        1.57944
C         -0.94498        1.13151        1.87841
C         -1.70245        4.28529       -0.58316
C         -0.50088        4.29589       -1.50334
C         -2.29841        2.96367        2.59459
H         -2.93102        3.80198        2.35156
C         -1.99694        2.66509        3.91234
H         -2.40485        3.26861        4.70662
C         -1.17426        1.59545        4.21047
H         -0.94010        1.36291        5.23630
C         -0.64375        0.82732        3.18938
H          0.00933       -0.00454        3.40320
Pd        -1.24991        0.83903       -1.39678
Cl        -2.28579        1.75226       -3.16732
Cl        -0.34359       -0.89896       -2.49494
C         -2.99300        4.85356       -1.20403
C         -3.98627        2.60137       -0.50944
H         -0.21958        5.31420       -1.78210
H          0.36389        3.82052       -1.03319
H         -0.71525        3.74793       -2.42305
H         -2.93051        4.75508       -2.29650
H         -3.06910        5.93404       -1.00919
H         -4.11577        2.07680       -1.46546
C         -4.25729        4.10589       -0.69144
C         -4.80233        1.93104        0.57544
H         -1.47545        4.78864        0.36590
H         -4.56992        4.52952        0.27283
H         -5.10844        4.26147       -1.37172
H         -5.86874        1.94613        0.33900
H         -4.49985        0.89024        0.71192
H         -4.67194        2.43713        1.53277
C         -1.02740       -4.28630        0.77702
C          0.31161       -3.82463        0.85623
C          0.53984       -2.46080        0.78581
C         -0.50132       -1.57351        0.71294
C         -1.80065       -2.00710        0.73892
C         -2.09984       -3.35808        0.80888
O         -1.29157       -5.67395        0.62875
C          1.51228       -4.77695        0.97022
H          1.54242       -2.07130        0.76676
H         -2.58327       -1.26929        0.68490
C         -3.57263       -3.79170        0.87115
C          4.21602        1.20029       -0.02157
C          3.55683        0.33678       -0.93575
C          2.21108        0.08306       -0.73795
C          1.54595        0.57010        0.35576
C          2.20785        1.30520        1.30434
C          3.55319        1.60555        1.16763
O          5.49808        1.72003       -0.33565
C          4.24554       -0.35053       -2.12663
H          1.65064       -0.48685       -1.45890
H          1.65606        1.65573        2.15891
C          4.24500        2.35084        2.32177
C          1.14582       -6.03743        1.77438
C          1.98807       -5.16520       -0.43796
C          2.68326       -4.09361        1.71306
C         -4.42547       -2.72353        1.59333
C         -4.11070       -3.96225       -0.55777
C         -3.73443       -5.10256        1.66185
C         -1.35519       -6.10999       -0.72347
H          2.01351       -6.68292        1.90833
H          0.76844       -5.76728        2.76006
H          0.37764       -6.61971        1.27174
H          2.26552       -4.27930       -1.00814
H          2.85622       -5.82205       -0.38999
H          1.20681       -5.68101       -0.99053
H          3.48555       -4.80506        1.90736
H          3.11271       -3.28070        1.12946
H          2.35315       -3.69209        2.67078
H         -5.44111       -3.08399        1.75500
H         -3.99838       -2.47856        2.56546
H         -4.50187       -1.80682        1.01069
H         -4.02783       -3.02875       -1.11398
H         -3.55264       -4.72021       -1.10191
H         -5.15943       -4.25794       -0.54791
H         -4.78517       -5.37483        1.75839
H         -3.22513       -5.92821        1.17150
H         -3.31702       -5.00045        2.66298
H         -2.33964       -6.53086       -0.92698
H         -1.16862       -5.27554       -1.40078
H         -0.61184       -6.88906       -0.89163
C          5.43461        2.92478       -1.08087
C          3.78010        0.30843       -3.43571
C          5.77972       -0.28722       -2.03364
C          3.85579       -1.84547       -2.14759
C          3.84519        1.70290        3.66621
C          5.77916        2.27894        2.22851
C          3.79755        3.82186        2.32038
H          4.23506       -0.17654       -4.29888
H          2.69813        0.23843       -3.54370
H          4.04878        1.36270       -3.46281
H          6.24579       -0.86215       -2.83350
H          6.13795        0.73637       -2.11275
H          6.12361       -0.68865       -1.08102
H          2.78967       -1.98340       -2.31952
H          4.38321       -2.37370       -2.94138
H          4.10987       -2.32135       -1.20096
H          4.38658        2.16057        4.49383
H          2.78244        1.81850        3.87230
H          4.07464        0.63767        3.66274
H          6.24766        2.72871        3.10360
H          6.11175        1.24387        2.15854
H          6.14616        2.80703        1.35165
H          4.25453        4.36862        3.14480
H          2.71569        3.89971        2.42462
H          4.07802        4.31773        1.39313
H          4.89575        2.76048       -2.01259
H          4.91702        3.69214       -0.50772
H          6.44659        3.26319       -1.30425
