111
-148.55604050
P         -2.56805        2.04491        0.80331
P          0.14193        0.43240        0.49664
C         -1.48859        1.81612        2.24221
C         -0.29199        1.14817        2.09437
C         -3.40397        3.69565        0.80975
C         -2.79872        4.62065       -0.22355
C         -1.86232        2.29187        3.48271
H         -2.80830        2.79511        3.59775
C         -1.02831        2.10498        4.57167
H         -1.31905        2.47651        5.54073
C          0.17350        1.44034        4.41925
H          0.82126        1.29261        5.26763
C          0.54068        0.95564        3.17676
H          1.46752        0.41983        3.04317
Pd        -1.28561        1.45156       -1.01457
Cl        -2.97488        2.05589       -2.36012
Cl         0.09771        0.81400       -2.66833
C         -4.88025        3.33310        0.56077
C         -4.04159        0.92617        0.80107
H         -2.89447        4.19816       -1.22493
H         -3.29488        5.59401       -0.22780
H         -1.73434        4.78233       -0.03681
H         -5.08201        3.40062       -0.51720
H         -5.54278        4.07476        1.03238
H         -4.10623        0.51123       -0.21383
C         -5.20988        1.89624        1.05761
C         -3.90013       -0.17897        1.82513
H         -3.27617        4.10771        1.81873
H         -5.41916        1.92040        2.13596
H         -6.13059        1.51933        0.58676
H         -4.78335       -0.82160        1.84481
H         -3.03177       -0.80547        1.61157
H         -3.76745        0.23499        2.82641
C         -1.22400       -3.90719        0.25501
C         -1.08842       -3.28767        1.52429
C         -0.65100       -1.97444        1.57134
C         -0.42515       -1.26541        0.42123
C         -0.65822       -1.82738       -0.80561
C         -1.09636       -3.13339       -0.92639
O         -1.44901       -5.30686        0.16901
C         -1.37939       -4.02934        2.83825
H         -0.47510       -1.48560        2.51314
H         -0.48144       -1.22216       -1.67750
C         -1.40045       -3.68548       -2.32741
C          4.53554        0.77118       -0.64968
C          3.82349       -0.42806       -0.90531
C          2.48890       -0.48469       -0.54339
C          1.88264        0.55852        0.10553
C          2.59150        1.68149        0.44333
C          3.93361        1.80098        0.11905
O          5.83305        0.95725       -1.19638
C          4.45314       -1.64290       -1.60435
H          1.89427       -1.34845       -0.78295
H          2.07532        2.47213        0.96005
C          4.70522        3.04926        0.57560
C         -1.83265       -3.04174        3.93774
C         -2.51749       -5.04974        2.65519
C         -0.10324       -4.73933        3.31438
C         -1.92308       -2.56032       -3.25099
C         -0.11290       -4.26182       -2.93588
C         -2.49583       -4.76561       -2.27485
C         -0.25775       -6.07882        0.08255
H         -2.15183       -3.57825        4.83097
H         -1.02695       -2.37346        4.23794
H         -2.67150       -2.43694        3.59500
H         -2.76799       -5.53126        3.60010
H         -3.41386       -4.56051        2.27538
H         -2.23999       -5.83084        1.95156
H         -0.27492       -5.26191        4.25508
H          0.23823       -5.46805        2.58324
H          0.70214       -4.02154        3.46857
H         -2.26556       -2.96768       -4.20182
H         -2.76043       -2.03743       -2.78960
H         -1.14811       -1.82992       -3.47803
H          0.65260       -3.49052       -3.01785
H          0.28979       -5.06339       -2.32100
H         -0.29690       -4.66108       -3.93291
H         -3.39788       -4.37394       -1.80589
H         -2.75559       -5.10952       -3.27569
H         -2.17292       -5.63186       -1.70317
H         -0.24197       -6.62602       -0.85977
H          0.61956       -5.43337        0.14248
H         -0.23308       -6.80274        0.89696
C          5.83444        1.55140       -2.48848
C          5.95506       -1.75282       -1.28616
C          3.79308       -2.95435       -1.11815
C          4.23789       -1.51952       -3.12049
C          4.57899        4.14483       -0.49369
C          4.13076        3.58820        1.90566
C          6.18866        2.72392        0.82888
H          6.38590       -2.64812       -1.73373
H          6.50586       -0.89704       -1.66803
H          6.11652       -1.80015       -0.20975
H          4.32082       -3.82239       -1.51259
H          3.81116       -3.01740       -0.03044
H          2.75856       -3.03377       -1.44847
H          3.17480       -1.46775       -3.35492
H          4.70613       -0.61998       -3.51297
H          4.65892       -2.37606       -3.64627
H          5.10560        5.04930       -0.19025
H          4.99373        3.81761       -1.44407
H          3.53322        4.40226       -0.65990
H          4.75243        4.39289        2.29763
H          3.12798        3.99299        1.77800
H          4.08986        2.80044        2.65752
H          6.68889        2.41430       -0.08530
H          6.28602        1.91578        1.55304
H          6.71990        3.59285        1.21649
H          4.81431        1.76976       -2.80706
H          6.41411        2.47408       -2.46583
H          6.30089        0.87368       -3.20323
