111
-148.55431869
P         -1.67759        2.82520        0.04030
P         -0.51016       -0.07944        0.50798
C         -1.64037        2.11940        1.71418
C         -1.20001        0.82640        1.90403
C         -0.50350        4.24855       -0.08265
C          0.59637        3.94371       -1.07801
C         -2.02116        2.87963        2.80161
H         -2.32667        3.90250        2.65465
C         -1.98542        2.33240        4.07264
H         -2.28712        2.92496        4.92088
C         -1.55803        1.03130        4.25656
H         -1.52496        0.60764        5.24681
C         -1.15324        0.27879        3.16872
H         -0.78271       -0.72612        3.29698
Pd        -1.29339        1.02364       -1.36044
Cl        -2.53232        2.02621       -2.93522
Cl        -0.77263       -0.79833       -2.57021
C         -1.40869        5.43098       -0.48501
C         -3.27071        3.68902       -0.34123
H          0.17575        3.73717       -2.06435
H          1.28740        4.78376       -1.18072
H          1.17363        3.06550       -0.78065
H         -1.31095        5.59504       -1.56687
H         -1.05502        6.36100       -0.01506
H         -3.46897        3.49951       -1.40388
C         -2.90290        5.16994       -0.14006
C         -4.42453        3.18952        0.50188
H         -0.09693        4.39505        0.92657
H         -3.09616        5.44682        0.90530
H         -3.56379        5.81300       -0.74137
H         -4.57217        2.11499        0.37173
H         -4.24530        3.36833        1.56231
H         -5.35710        3.69385        0.23881
C         -0.88838       -4.61171        0.58373
C          0.18114       -3.98024        1.27305
C          0.26247       -2.59804        1.22857
C         -0.70618       -1.85233        0.60868
C         -1.80958       -2.44964        0.05889
C         -1.95169       -3.82768        0.06180
O         -0.85093       -6.00906        0.34217
C          1.25819       -4.73674        2.06872
H          1.10482       -2.08569        1.66300
H         -2.55264       -1.82370       -0.40631
C         -3.24935       -4.41596       -0.51670
C          3.82260        1.18382       -0.08707
C          3.27468        0.14231       -0.87920
C          1.95009       -0.20569       -0.67764
C          1.21190        0.37265        0.31961
C          1.76425        1.30972        1.15252
C          3.07985        1.71284        0.99972
O          5.09645        1.72519       -0.40565
C          4.07204       -0.58322       -1.97350
H          1.45842       -0.91101       -1.32496
H          1.14430        1.73838        1.91975
C          3.66954        2.73283        1.98645
C          1.44102       -4.06499        3.44766
C          0.87335       -6.20304        2.33159
C          2.59086       -4.68342        1.30284
C         -4.46098       -3.64032        0.04589
C         -3.23144       -4.27770       -2.04837
C         -3.44557       -5.89322       -0.13424
C         -0.17621       -6.33907       -0.86072
H          2.14914       -4.62234        4.06038
H          1.82109       -3.04891        3.35613
H          0.49300       -4.02320        3.98326
H          1.60144       -6.69023        2.97974
H         -0.10322       -6.26397        2.81062
H          0.82621       -6.77103        1.40563
H          2.50199       -5.15182        0.32449
H          2.91107       -3.65328        1.14992
H          3.37694       -5.20035        1.85262
H         -4.46272       -2.60102       -0.27811
H         -5.39706       -4.08568       -0.29010
H         -4.45404       -3.65434        1.13540
H         -2.40041       -4.82893       -2.48373
H         -4.15360       -4.65993       -2.48516
H         -3.12668       -3.23425       -2.34400
H         -3.39042       -6.02098        0.94626
H         -4.41429       -6.26104       -0.47164
H         -2.68083       -6.52210       -0.58372
H         -0.67297       -5.87047       -1.70853
H          0.85335       -5.98732       -0.82106
H         -0.18293       -7.42133       -0.99181
C          5.05227        2.80339       -1.33212
C          3.87976        0.14948       -3.30993
C          5.56733       -0.65871       -1.61610
C          3.57436       -2.03866       -2.13235
C          3.44370        4.15472        1.45066
C          2.98467        2.61617        3.36744
C          5.17224        2.48132        2.20623
H          2.82585        0.17507       -3.58624
H          4.23044        1.17706       -3.25053
H          4.42679       -0.34788       -4.11037
H          6.12031       -1.22863       -2.36235
H          6.01350        0.33095       -1.56142
H          5.70637       -1.14122       -0.64920
H          4.21628       -2.59474       -2.81514
H          3.57797       -2.55603       -1.17349
H          2.56515       -2.07903       -2.53918
H          2.37966        4.36043        1.34089
H          3.86113        4.89821        2.12917
H          3.90927        4.28930        0.47754
H          3.48678        3.24491        4.10239
H          1.94464        2.93749        3.33025
H          3.01438        1.58887        3.72968
H          5.34457        1.46114        2.54756
H          5.57857        3.16248        2.95348
H          5.73666        2.62567        1.28827
H          4.02085        3.02783       -1.60696
H          5.51075        3.68612       -0.88659
H          5.61749        2.54189       -2.22644
