59
-75.80139959
Cl         1.58169       -0.03286        2.34445
P          1.48409        0.03714       -0.86849
P         -1.70915       -0.17522       -0.78364
C          0.45978        0.27427       -2.38780
H          0.16403        1.32455       -2.44675
H          1.07495        0.05650       -3.26636
C         -0.75037       -0.61194       -2.29983
H         -0.45487       -1.66157       -2.22840
H         -1.40654       -0.51262       -3.17017
C          2.71337       -1.32894       -1.12005
H          2.88772       -1.31946       -2.20497
C          2.66486        1.42643       -0.50431
H          2.43353        1.75837        0.51523
C         -3.00564       -1.42709       -0.35944
H         -3.09705       -1.40488        0.73371
C         -2.80646        1.28393       -1.12660
H         -2.62107        1.56639       -2.16993
C          3.96389       -0.78543       -0.41004
H          3.91849       -1.04535        0.65526
H          4.87027       -1.27523       -0.79805
C          4.05369        0.75787       -0.55137
H          4.53221        1.00385       -1.50893
H          4.71031        1.18338        0.22220
C         -4.26494       -0.82983       -1.00704
H         -4.31986       -1.16692       -2.05173
H         -5.17049       -1.22360       -0.52000
C         -4.23368        0.72102       -0.95801
H         -4.63096        1.05721        0.00950
H         -4.90737        1.15036       -1.71464
C          2.26293       -2.72761       -0.69464
H          3.00892       -3.45737       -1.03906
H          1.34592       -2.98090       -1.24239
C          2.51347        2.58696       -1.48144
H          2.71939        2.22256       -2.49658
H          1.46712        2.91570       -1.50133
C         -2.66432       -2.83786       -0.82128
H         -3.55208       -3.47694       -0.71619
H         -2.45017       -2.81885       -1.89755
C         -2.51874        2.46191       -0.20004
H         -3.33594        3.19151       -0.28842
H         -2.55832        2.10857        0.83885
C          2.04021       -2.91258        0.79848
H          1.32624       -2.18983        1.19037
H          2.96414       -2.78927        1.36504
H          1.65421       -3.90758        1.03256
C          3.41578        3.76587       -1.14775
H          3.20629        4.15013       -0.14764
H          3.28787        4.59212       -1.85087
H          4.46885        3.47987       -1.16743
C         -1.49845       -3.43598       -0.05174
H         -0.61610       -2.80104       -0.12677
H         -1.22635       -4.42852       -0.41782
H         -1.73175       -3.52790        1.01080
C         -1.18986        3.14544       -0.47498
H         -0.35636        2.45828       -0.33414
H         -1.13852        3.51204       -1.50194
H         -1.02203        3.99749        0.18775
Cl        -1.68021        0.14092        2.41354
Pd        -0.08367        0.06010        0.84118
