111
-148.55612736
P         -2.61579        1.81265        1.06861
P          0.18549        0.50403        0.43745
C         -1.47531        1.44168        2.42835
C         -0.22558        0.93670        2.14128
C         -3.57721        3.36045        1.39497
C         -3.01844        4.54249        0.63338
C         -1.84401        1.66234        3.74015
H         -2.82903        2.03897        3.96147
C         -0.95318        1.38305        4.76222
H         -1.24032        1.55464        5.78679
C          0.30163        0.88306        4.47150
H          0.99395        0.66290        5.26738
C          0.66445        0.65396        3.15670
H          1.63215        0.24434        2.91457
Pd        -1.34790        1.68666       -0.85899
Cl        -3.09378        2.56610       -1.95195
Cl         0.02075        1.26328       -2.58933
C         -5.00932        2.95372        1.00289
C         -4.00026        0.59988        0.86665
H         -3.58968        5.45200        0.83309
H         -1.97604        4.73009        0.90154
H         -3.05220        4.36400       -0.44188
H         -5.16777        3.20012       -0.05616
H         -5.74546        3.55308        1.56012
H         -4.01145        0.32855       -0.19760
C         -5.24792        1.43191        1.22161
C         -3.79635       -0.62488        1.73158
H         -3.51863        3.54066        2.47579
H         -5.50527        1.25067        2.27421
H         -6.11675        1.08432        0.64236
H         -4.63016       -1.32439        1.63744
H         -2.88160       -1.15358        1.45818
H         -3.71219       -0.34647        2.78368
C         -1.26639       -3.76006       -0.27308
C         -0.94646       -3.33137        1.04042
C         -0.48066       -2.03926        1.21457
C         -0.38493       -1.17324        0.15732
C         -0.77260       -1.55718       -1.09807
C         -1.26583       -2.82649       -1.34065
O         -1.55395       -5.12856       -0.52158
C         -1.07700       -4.25263        2.26310
H         -0.18672       -1.68780        2.18773
H         -0.67624       -0.84193       -1.89523
C         -1.78314       -3.16333       -2.74774
C          4.64129        0.68043       -0.47805
C          4.09820       -0.43232        0.21383
C          2.73455       -0.45099        0.45432
C          1.94001        0.61133        0.11006
C          2.47713        1.73601       -0.45801
C          3.83152        1.81581       -0.73844
O          5.98305        0.64250       -0.94243
C          4.95084       -1.62459        0.67580
H          2.26699       -1.31052        0.90346
H          1.81345        2.54660       -0.70454
C          4.38990        3.10366       -1.36378
C          0.22528       -5.04781        2.44068
C         -1.32895       -3.43073        3.54812
C         -2.26939       -5.21293        2.10290
C         -0.61830       -3.67335       -3.60918
C         -2.90538       -4.21541       -2.69113
C         -2.38200       -1.90501       -3.41906
C         -0.41758       -5.90180       -0.88624
H          0.43144       -5.66586        1.57034
H          1.07167       -4.37506        2.57775
H          0.16836       -5.70108        3.31101
H         -0.46011       -2.83403        3.82226
H         -2.17983       -2.76200        3.42209
H         -1.54337       -4.08765        4.39077
H         -2.40217       -5.82527        2.99445
H         -3.19031       -4.65586        1.93344
H         -2.12616       -5.88523        1.26044
H         -0.17393       -4.56897       -3.18140
H         -0.95393       -3.91201       -4.61802
H          0.16425       -2.91855       -3.68337
H         -3.31532       -4.40499       -3.68283
H         -2.54341       -5.16218       -2.29860
H         -3.71658       -3.87596       -2.04787
H         -2.86904       -2.16236       -4.35920
H         -3.12561       -1.43796       -2.77372
H         -1.61674       -1.16529       -3.64874
H          0.48483       -5.28978       -0.85665
H         -0.31175       -6.73997       -0.19759
H         -0.55218       -6.30213       -1.89082
C          6.13044        0.08324       -2.24176
C          6.38178       -1.18080        1.02971
C          4.35003       -2.26165        1.95024
C          4.98267       -2.68716       -0.43322
C          5.84433        3.35078       -0.92389
C          4.30810        2.99844       -2.89436
C          3.56862        4.33245       -0.91149
H          6.90331       -0.78994        0.15976
H          6.36408       -0.39818        1.78747
H          6.96638       -2.01492        1.41697
H          4.19308       -1.50914        2.72264
H          3.39771       -2.74962        1.74789
H          5.01821       -3.02171        2.35457
H          5.56957       -3.55298       -0.12765
H          3.97467       -3.02837       -0.66836
H          5.41892       -2.29108       -1.34702
H          6.21718        4.29641       -1.31663
H          5.91627        3.38265        0.16274
H          6.50578        2.56446       -1.27871
H          4.68059        3.90575       -3.36911
H          4.89430        2.16070       -3.26399
H          3.27739        2.84761       -3.21461
H          2.56087        4.31774       -1.32388
H          4.03771        5.25642       -1.24894
H          3.49577        4.37165        0.17505
H          6.78004       -0.79049       -2.19326
H          5.15868       -0.20724       -2.64308
H          6.59352        0.81447       -2.90410
