115
-277.93526223
P         -1.68909       -0.06624       -0.12034
P          1.88327       -0.78384        0.42762
C         -1.49598        1.70424       -0.44059
C         -2.61267        2.50009       -0.30981
H         -3.58275        2.04764       -0.17144
C         -2.47137        3.87053       -0.24952
H         -3.31738        4.49563       -0.01369
C         -1.21662        4.44937       -0.35157
C         -0.12367        3.64866       -0.64148
H          0.84538        4.11832       -0.74507
C         -0.26408        2.27614       -0.68345
H          0.60226        1.65700       -0.84241
C         -3.16744       -0.67922       -0.94363
C         -3.75772       -1.82149       -0.45593
H         -3.33238       -2.32001        0.40006
C         -4.89697       -2.31537       -1.05578
H         -5.38226       -3.20009       -0.67600
C         -5.44593       -1.67198       -2.14868
C         -4.84421       -0.52701       -2.63318
H         -5.28891       -0.02988       -3.48098
C         -3.70397       -0.03199       -2.03272
H         -3.22401        0.85195       -2.42092
C         -1.68355       -0.61102        1.62472
C         -1.06379       -1.83784        1.78995
H         -0.62201       -2.32499        0.93667
C         -0.84718       -2.38131        3.05681
C         -1.48866       -1.77807        4.13203
H         -1.37156       -2.19642        5.11776
C         -2.12872       -0.56514        3.97413
H         -2.51112       -0.05396        4.84125
C         -2.13519        0.09533        2.74581
C          1.40957       -0.29001        2.12574
C          0.74608        0.92015        2.12628
H          0.52906        1.39575        1.18843
C          0.19449        1.45658        3.28710
C          0.52058        0.85074        4.49390
H          0.14042        1.26452        5.41290
C          1.18440       -0.35953        4.50786
H          1.31687       -0.87640        5.44329
C          1.53416       -1.00885        3.32342
C         -2.30433        1.59701        2.76533
H         -3.13018        1.85460        3.43768
H         -2.64169        1.92238        1.78404
C         -0.99791        2.37009        3.18431
H         -0.77185        3.17663        2.47847
H         -1.14112        2.87807        4.14436
C          0.32775       -3.29509        3.29739
H          0.37143       -4.05270        2.50804
H          0.15561       -3.86756        4.21574
C          1.68894       -2.51164        3.38900
H          2.21963       -2.77734        4.31115
H          2.36777       -2.84369        2.60748
C          2.84065       -2.29854        0.52495
C          4.08467       -2.25911        1.11996
C          2.21947       -3.50273        0.27111
C          4.65448       -3.43245        1.57941
C          2.79601       -4.67258        0.71840
C          3.97897       -4.63553        1.44092
C          2.88274        0.51069       -0.32856
C          3.09864        0.50557       -1.68734
C          3.29084        1.58161        0.43418
C          3.66413        1.60311       -2.29995
H          2.77890       -0.33780       -2.27596
C          3.85787        2.67966       -0.17669
H          3.12039        1.58249        1.49847
C          4.02001        2.70783       -1.55029
H          3.77538        1.64807       -3.37206
H          4.11284        3.55781        0.39526
Pd         0.17792       -1.00142       -1.18439
Cl        -1.18382       -1.15281       -2.96729
Cl         1.74386       -2.19312       -2.28522
H          2.27051       -5.60959        0.62884
H          1.24922       -3.52320       -0.19884
H          5.56364       -3.41598        2.15998
H          4.55143       -1.30770        1.32252
C         -2.17221        6.78533       -0.08501
C         -0.97365        5.83328        0.19864
C         -0.70897        5.63878        1.72449
F         -2.43308        6.73267       -1.39977
F         -3.24737        6.38004        0.60480
F         -1.83265        8.03462        0.26966
F          0.11829        6.37208       -0.34908
F         -1.74479        4.98488        2.26721
F          0.38914        4.88007        1.84940
F         -0.53032        6.82938        2.31262
C         -6.70644       -3.70167       -2.94540
C         -6.73601       -2.15519       -2.76143
C         -7.91408       -1.68910       -1.85858
F         -7.77921       -4.08168       -3.65644
F         -5.58097       -4.00976       -3.60712
F         -6.70385       -4.29767       -1.74492
F         -6.90439       -1.60690       -3.96787
F         -7.90037       -0.34771       -1.84282
F         -9.07232       -2.13608       -2.36650
F         -7.72896       -2.15725       -0.61549
C          3.02588        4.83920       -2.25696
C          4.33747        3.99926       -2.25619
C          5.52830        4.73273       -1.57368
F          2.08444        4.10924       -2.87289
F          2.64654        5.05768       -0.99071
F          3.22831        5.99459       -2.90680
F          4.67589        3.76234       -3.52634
F          6.55792        3.87405       -1.52549
F          5.85801        5.80932       -2.30416
F          5.18389        5.09650       -0.33047
C          3.36461       -5.59240        3.61289
C          4.31067       -5.76758        2.38109
C          4.14640       -7.15034        1.68672
F          3.64106       -4.40379        4.16616
F          2.09156       -5.58772        3.19441
F          3.57648       -6.58072        4.49203
F          5.57171       -5.66417        2.80719
F          2.85812       -7.35067        1.37641
F          4.88590       -7.13354        0.56766
F          4.58393       -8.11139        2.51495
