87
-129.18241630
P         -1.73760       -0.32435        0.04949
P          1.56908        0.32938       -0.24366
C         -1.43099        0.98872       -1.15930
C          1.23133       -0.70790       -1.67055
C         -0.57074        0.89882       -2.25162
C         -0.37263        2.03989       -3.05277
C         -1.04839        3.20959       -2.75053
C         -1.89308        3.28185       -1.66486
C         -2.07449        2.16867       -0.86704
C          1.99747       -1.82133       -1.91281
C          1.74240       -2.60540       -3.02071
C          0.71694       -2.26572       -3.87913
C         -0.06948       -1.14822       -3.64994
C          0.19819       -0.34375       -2.52450
Cl         1.45265        1.49786        2.72838
Cl        -1.19609       -0.32167        3.28766
H         -2.40158        4.20314       -1.43258
H         -2.71712        2.21836       -0.00053
H          2.79945       -2.07386       -1.23934
H          2.34020       -3.48160       -3.21108
H         -0.89288        4.07699       -3.36946
H          0.51222       -2.87857       -4.74051
C         -0.76872       -4.60641       -1.13030
C         -0.27478       -4.09745        0.06270
C         -0.59139       -2.78858        0.40569
C         -1.36673       -2.01543       -0.42813
C         -1.88399       -2.54071       -1.58831
C         -1.57921       -3.84088       -1.94504
H         -0.51883       -5.61504       -1.41224
C          0.59731       -4.92593        0.93811
H         -0.26487       -2.38573        1.34936
H         -2.51014       -1.92757       -2.21588
H         -1.96609       -4.25198       -2.86302
C         -6.17562       -0.16905        1.06262
C         -5.75699       -0.15008       -0.25323
C         -4.40668       -0.19245       -0.54846
C         -3.48676       -0.25411        0.47291
C         -3.90456       -0.27399        1.78176
C         -5.25499       -0.22349        2.09954
H         -7.22656       -0.14260        1.29544
H         -6.48112       -0.10372       -1.05004
H         -4.06465       -0.17185       -1.57133
H         -3.17160       -0.32701        2.56650
C         -5.70179       -0.26959        3.51857
C          4.99083       -1.43212        2.19818
C          5.11720       -0.17491        1.64189
C          4.08193        0.35520        0.89577
C          2.93269       -0.37559        0.70540
C          2.80421       -1.62740        1.26102
C          3.83037       -2.17321        2.02212
H          5.79595       -1.84721        2.78020
H          6.01921        0.39514        1.79308
H          4.16210        1.34105        0.46789
H          1.90080       -2.18950        1.10135
C          3.68838       -3.53103        2.61446
C          2.63932        4.51301       -1.65441
C          3.24300        3.41280       -2.23124
C          2.92244        2.14137       -1.79254
C          2.00965        1.98454       -0.77605
C          1.41617        3.07822       -0.19089
C          1.71204        4.36174       -0.63251
H          2.88610        5.50399       -1.99541
H          3.95848        3.54355       -3.02644
H          3.37113        1.26932       -2.24210
H          0.71713        2.93762        0.61585
C          1.07081        5.54348        0.00482
Pd         0.00627        0.29382        1.50401
C          0.55899        2.02423       -4.21517
C         -1.17810       -0.82595       -4.59011
H          0.00878        1.94739       -5.15369
H          1.15308        2.93856       -4.24882
H          1.25378        1.18562       -4.16037
H         -1.85084       -0.07601       -4.17232
H         -0.78844       -0.44159       -5.53352
H         -1.77192       -1.71435       -4.81005
H          0.27403       -5.96783        0.94094
H          1.63148       -4.89517        0.59257
H          0.57331       -4.56968        1.96885
H         -5.88078       -1.29818        3.83464
H         -4.94887        0.15935        4.18145
H         -6.62601        0.29270        3.65907
H          2.70453       -3.65616        3.06874
H          3.81120       -4.30177        1.85235
H          4.43462       -3.70518        3.39081
H          1.63309        5.86162        0.88375
H          1.01880        6.38558       -0.68673
H          0.05280        5.31222        0.32203
