111
-148.55178963
P         -1.49619        2.67564        1.09201
P         -0.49578       -0.26315        0.48770
C         -1.17040        1.53294        2.46820
C         -0.81336        0.22824        2.19515
C         -0.27518        4.05879        1.04471
C          0.45665        4.07401       -0.28046
C         -1.23622        1.96372        3.77802
H         -1.45688        2.99651        3.98856
C         -0.98070        1.07837        4.81080
H         -1.03707        1.41513        5.83309
C         -0.64552       -0.23291        4.53382
H         -0.44139       -0.92075        5.33781
C         -0.54919       -0.65581        3.22059
H         -0.24946       -1.66490        2.98599
Pd        -1.62808        1.31076       -0.76952
Cl        -2.60577        3.01720       -1.85011
Cl        -1.65334       -0.09855       -2.51726
C         -1.15077        5.30470        1.29618
C         -3.08762        3.62482        1.18031
H          1.17184        4.89822       -0.33491
H          1.00443        3.14331       -0.44449
H         -0.24812        4.18992       -1.10630
H         -0.72981        6.16356        0.75324
H         -1.11180        5.58012        2.36047
H         -3.71680        3.23504        0.36839
C         -2.63130        5.06834        0.88120
C         -3.80321        3.47124        2.50551
H          0.42552        3.89137        1.87335
H         -3.29650        5.77845        1.39396
H         -2.74411        5.27877       -0.19265
H         -4.77888        3.96250        2.49113
H         -3.95909        2.41913        2.75403
H         -3.22746        3.92551        3.31232
C         -0.73160       -4.76333       -0.15722
C         -1.79878       -3.93765       -0.59526
C         -1.71713       -2.57585       -0.35481
C         -0.59989       -2.02681        0.21689
C          0.48053       -2.80569        0.54074
C          0.46173       -4.17523        0.33418
O         -0.86898       -6.17685       -0.18281
C         -3.03366       -4.49707       -1.31949
H         -2.52449       -1.91770       -0.62551
H          1.34763       -2.32231        0.95783
C          1.71830       -4.99842        0.65835
C          3.60319        1.34232       -0.68845
C          3.20961        1.34714        0.67426
C          1.97478        0.81523        1.00359
C          1.13058        0.34110        0.03432
C          1.46512        0.42358       -1.29131
C          2.67466        0.96332       -1.69152
O          4.93357        1.69414       -1.04015
C          4.11283        1.90320        1.78569
H          1.65196        0.76674        2.02836
H          0.73933        0.09278       -2.01375
C          2.94464        1.14644       -3.19323
C         -3.61653       -3.44541       -2.29151
C         -2.66863       -5.73194       -2.16344
C         -4.11006       -4.86146       -0.28623
C          2.99397       -4.14673        0.46331
C          1.65783       -5.46375        2.12099
C          1.84240       -6.21261       -0.28003
C         -1.42805       -6.72653        1.00345
H         -4.05487       -2.60276       -1.75917
H         -2.84384       -3.06375       -2.95838
H         -4.40466       -3.88009       -2.90578
H         -1.87336       -5.49268       -2.86861
H         -2.32431       -6.55211       -1.53836
H         -3.52878       -6.08806       -2.72979
H         -4.39659       -3.98639        0.29658
H         -5.00377       -5.24979       -0.77401
H         -3.75056       -5.61768        0.40749
H          3.88841       -4.76113        0.56391
H          3.00952       -3.69281       -0.52732
H          3.06713       -3.35309        1.20547
H          2.54235       -6.04371        2.38320
H          1.60195       -4.60932        2.79516
H          0.78345       -6.08460        2.30102
H          1.01713       -6.90671       -0.14179
H          1.83992       -5.89393       -1.32186
H          2.76679       -6.75893       -0.09426
H         -1.65112       -5.93603        1.72110
H         -2.34321       -7.26611        0.76028
H         -0.72483       -7.43169        1.44618
C          5.81876        0.58598       -1.14148
C          3.27489        2.37504        2.99560
C          5.07349        0.80230        2.25918
C          4.90699        3.12283        1.28414
C          3.57077       -0.13728       -3.75802
C          1.62536        1.42884       -3.94964
C          3.86998        2.34977       -3.44938
H          3.90533        2.87461        3.73082
H          2.50524        3.07966        2.68350
H          2.79298        1.54033        3.50272
H          5.71645        1.16360        3.06141
H          4.51884       -0.05860        2.63192
H          5.71060        0.45994        1.44768
H          4.23241        3.89138        0.90797
H          5.50455        3.55785        2.08484
H          5.58457        2.84963        0.47865
H          4.51074       -0.36906       -3.26278
H          2.90301       -0.98641       -3.61410
H          3.76699       -0.03915       -4.82538
H          1.08596        2.25814       -3.49259
H          1.82313        1.69057       -4.98871
H          0.96986        0.55951       -3.95928
H          4.00815        2.51770       -4.51716
H          4.85266        2.19660       -3.01091
H          3.44872        3.25597       -3.01522
H          6.18082        0.49601       -2.16531
H          6.67802        0.74738       -0.49061
H          5.31062       -0.33502       -0.85273
