100
-131.97539261
C         -1.56440        3.87446       -1.38473
C         -2.29693        2.60495       -1.45353
C         -0.17386        3.57669       -1.39583
C          0.03120        2.11307       -1.56724
C          1.19730        1.56170       -2.31255
C         -1.35220        1.52792       -1.55942
C         -1.75720        0.14054       -2.02947
C         -0.84641       -0.47172       -3.07522
Cl         0.99794       -0.42497        2.79632
Cl        -1.77199       -1.60206        2.29353
C          3.28336        0.58746       -3.90849
C          2.55842        1.68821       -4.32222
C          2.98605       -0.01598       -2.69494
C          1.54095        2.17210       -3.53839
C          1.95764        0.44495       -1.90794
H         -3.38124        2.50228       -1.53524
H          0.62539        4.32014       -1.43754
H          0.09535       -0.78741       -2.62849
H         -1.29530       -1.35016       -3.54451
H         -0.61852        0.24310       -3.86931
H          4.08890        0.20985       -4.51676
H          2.79232        2.16608       -5.25980
H          3.59081       -0.84176       -2.35781
H          0.96806        3.02268       -3.86547
H         -2.00969        4.87196       -1.35008
P          1.81744       -0.29466       -0.26789
H         -2.75852        0.23301       -2.46746
P         -1.99009       -0.98859       -0.58530
H         -2.95145       -2.86036       -1.80307
C         -1.89433       -3.82320       -0.16605
C         -2.04258       -2.72094       -1.22064
C         -3.15323       -4.00053        0.68286
H         -3.34247        0.61270        0.49938
C         -4.84609       -0.44014       -0.61515
C         -3.55583       -0.41832        0.21921
H         -4.58918       -0.14372       -1.64629
C         -5.48796       -1.82667       -0.66587
H          3.55512       -1.92358       -0.62313
H          2.67249        0.58255        1.81681
C          3.57698        3.15355        1.36080
C          2.71440        2.25472        0.45647
C          2.94007        0.77015        0.77163
C          4.42418        0.41861        0.58481
C          5.32114        1.30936        1.46998
C          5.06882        2.80537        1.19783
H          3.27962        3.00711        2.40657
H          3.39307        4.21580        1.14717
H          2.98692        2.43402       -0.59097
H          1.65071        2.50917        0.52319
H          4.60279       -0.64273        0.79898
H          4.68998        0.55660       -0.47001
H          5.11425        1.09345        2.52557
H          6.38135        1.06015        1.32255
H          5.38821        3.04710        0.17625
H          5.68886        3.43148        1.85496
C          2.36671       -4.32049       -1.33165
C          1.75699       -2.90550       -1.26963
C          2.51923       -2.01860       -0.27850
C          2.53923       -2.66172        1.11753
C          3.16163       -4.07044        1.06816
C          2.40531       -4.96562        0.06737
H          3.38711       -4.25643       -1.72948
H          1.81570       -4.95311       -2.04138
H          0.71415       -2.96836       -0.94329
H          1.72811       -2.44065       -2.26443
H          3.06027       -2.01575        1.83657
H          1.51267       -2.74039        1.49238
H          4.21296       -3.99209        0.76483
H          3.17661       -4.52571        2.06830
H          1.37943       -5.11966        0.42465
H          2.85389       -5.96811        0.02310
H         -1.07042       -3.52414        0.50691
C         -1.51218       -5.15301       -0.82425
H         -3.70503       -0.95940        1.15192
C         -5.84720        0.58448       -0.06984
H         -1.22157       -2.79899       -1.93387
H         -3.43838       -3.07575        1.18116
H         -3.00692       -4.75745        1.45507
H         -3.99285       -4.32388        0.06768
H         -0.60126       -5.06340       -1.41711
H         -1.35293       -5.93617       -0.08137
H         -2.30452       -5.49020       -1.49323
H         -4.83701       -2.56315       -1.13185
H         -5.72411       -2.17846        0.33886
H         -6.42047       -1.81118       -1.23251
H         -6.76600        0.59962       -0.65816
H         -6.11857        0.34440        0.95866
H         -5.43246        1.59372       -0.07294
Fe        -1.09549        2.62390        0.15558
C         -2.59622        2.93788        1.61065
C         -1.78961        4.13271        1.45212
C         -0.40354        3.80267        1.72599
C         -0.34487        2.38522        2.01764
C         -1.68920        1.85098        1.91910
H         -3.68178        2.87219        1.51529
H         -2.17267        5.13234        1.23666
H          0.43661        4.50067        1.73829
H          0.53031        1.82133        2.34376
H         -1.96590        0.82417        2.17007
Pd        -0.17017       -0.80039        0.89009
