100
-131.97554002
C         -1.52350        3.87899       -1.31696
C         -2.31243        2.65314       -1.47880
C         -0.14070        3.55606       -1.38211
C          0.00287        2.08353       -1.53059
C          1.14579        1.50012       -2.29339
C         -1.40234        1.54814       -1.55841
C         -1.83663        0.16966       -2.02662
C         -0.96528       -0.43343       -3.11122
Cl         1.03114       -0.39780        2.73208
Cl        -1.73462       -1.65794        2.30743
C          3.19220        0.48547       -3.91709
C          2.44383        1.56323       -4.34860
C          2.93610       -0.07613       -2.67448
C          1.44641        2.06668       -3.55160
C          1.92622        0.40309       -1.87430
H         -3.39791        2.60042       -1.57292
H          0.68195        4.27413       -1.41194
H         -0.00379       -0.74716       -2.70533
H         -1.42955       -1.31166       -3.56592
H         -0.77289        0.28657       -3.91008
H          3.98339        0.09331       -4.53492
H          2.64462        2.00882       -5.30945
H          3.55899       -0.88350       -2.32567
H          0.85737        2.90149       -3.89053
H         -1.93430        4.89134       -1.27678
P          1.83504       -0.29288       -0.21259
H         -2.85333        0.26935       -2.42607
P         -2.01643       -0.98545       -0.59596
H         -2.93866       -2.88115       -1.81124
C         -1.86749       -3.84637       -0.20361
C         -2.03027       -2.72164       -1.23363
C         -3.13338       -4.07557        0.62430
H         -3.33817        0.33671        0.89040
C         -4.80484       -0.19916       -0.58470
C         -3.58031       -0.52696        0.27385
H         -4.54863        0.66322       -1.22409
C         -5.20890       -1.35781       -1.49565
H          3.56919       -1.92803       -0.55641
H          2.73771        0.62474        1.83573
C          3.60649        3.19933        1.30136
C          2.72092        2.27435        0.44683
C          2.97366        0.79831        0.78040
C          4.45430        0.45555        0.55495
C          5.37113        1.37411        1.38988
C          5.09492        2.86109        1.09316
H          3.34748        3.07246        2.35981
H          3.40516        4.25522        1.07240
H          2.95076        2.43672       -0.61352
H          1.65763        2.51852        0.55107
H          4.64799       -0.59908        0.78930
H          4.68551        0.56995       -0.51079
H          5.20156        1.18006        2.45632
H          6.42832        1.13155        1.21268
H          5.37527        3.08195        0.05551
H          5.73189        3.50774        1.71316
C          2.37412       -4.32703       -1.23909
C          1.76595       -2.91119       -1.18858
C          2.53418       -2.01757       -0.20756
C          2.55582       -2.64579        1.19449
C          3.16696       -4.06016        1.15908
C          2.40652       -4.96002        0.16546
H          3.39649       -4.26606       -1.63237
H          1.82695       -4.96482       -1.94698
H          0.72440       -2.96984       -0.85754
H          1.73074       -2.45485       -2.18718
H          3.08754       -1.99541        1.90187
H          1.53036       -2.70892        1.57568
H          4.21963       -3.99291        0.85770
H          3.17613       -4.50598        2.16354
H          1.37901       -5.10405        0.52231
H          2.84864       -5.96574        0.13092
H         -1.05578       -3.55356        0.48602
C         -1.45701       -5.14927       -0.89853
H         -3.82689       -1.32673        0.96757
C         -5.97778        0.21882        0.30803
H         -1.20893       -2.77398       -1.94920
H         -3.37336       -3.21970        1.25119
H         -3.02054       -4.93583        1.28603
H         -3.98950       -4.27035       -0.02205
H         -1.28033       -5.94960       -0.17824
H         -2.24238       -5.48446       -1.57672
H         -0.54887       -5.02378       -1.48881
H         -4.44753       -1.56727       -2.24645
H         -5.37207       -2.26660       -0.91592
H         -6.13592       -1.13820       -2.02790
H         -6.27288       -0.60203        0.96243
H         -5.71591        1.06669        0.94300
H         -6.85155        0.49942       -0.28224
Fe        -1.07112        2.65083        0.20816
C         -2.55921        2.84260        1.63523
C         -1.82788        4.08759        1.48952
C         -0.42666        3.81974        1.75976
C         -0.30050        2.42186        2.11941
C         -1.61343        1.81813        2.02819
H         -3.63820        2.71577        1.52186
H         -2.25931        5.05992        1.24067
H          0.37931        4.55769        1.76008
H          0.60356        1.91303        2.45563
H         -1.84199        0.78418        2.29437
Pd        -0.20306       -0.79466        0.86772
