64
-97.20749141
Cl        -1.49773       -1.44793       -2.61915
Cl         1.63383       -1.47902       -2.91573
P          1.93097       -0.61750        0.30135
C          2.18901       -2.28798        1.05675
C          3.69559       -0.15457       -0.04060
P         -1.26711       -0.14740        0.38180
C          1.23426        0.58878        1.48124
C         -0.19328        0.82800        1.50111
C         -0.45885        1.93206        2.41219
C          0.82446        2.40472        2.90385
C          1.87104        1.55351        2.36329
H         -1.43235        2.37551        2.62587
H          0.97345        3.23063        3.60343
Pd         0.22264       -1.01008       -1.24066
H          2.94358        1.64640        2.54415
C         -4.88795        2.37423       -0.75983
C         -4.14707        1.76069       -1.75013
C         -3.06125        0.97664       -1.40999
C         -2.70951        0.82110       -0.08848
C         -3.45973        1.41344        0.90216
C         -4.55074        2.19568        0.56725
H         -5.73672        2.98451       -1.02238
H         -4.41904        1.88463       -2.78557
H         -2.50061        0.45894       -2.16928
H         -3.19825        1.24937        1.93509
H         -5.13623        2.66344        1.34171
C         -2.70767       -3.96906        2.36865
C         -2.33972       -2.88734        3.14541
C         -1.90578       -1.72092        2.54111
C         -1.84117       -1.64925        1.16897
C         -2.21173       -2.72084        0.39114
C         -2.64607       -3.88798        0.99103
H         -3.04565       -4.87816        2.83880
H         -2.38978       -2.95087        4.22002
H         -1.61321       -0.86693        3.13120
H         -2.15559       -2.63319       -0.68216
H         -2.93515       -4.73052        0.38455
C          4.00935       -0.14413       -1.52013
H          3.84800        0.84391        0.38984
C          4.49026       -1.22029        0.73991
H          4.72700       -0.84818        1.74749
C          3.69452       -2.54801        0.85566
H          5.46015       -1.39032        0.25015
C          1.76385       -2.27703        2.50894
H          1.58183       -3.00018        0.48126
H          4.07724       -3.15917        1.68578
H          3.85299       -3.14785       -0.05240
H          2.34074       -1.54036        3.07167
H          0.70918       -2.01449        2.61187
H          1.91678       -3.25089        2.98003
H          5.05147        0.12432       -1.70699
H          3.84129       -1.13172       -1.95236
H          3.37857        0.56241       -2.06210
Fe         0.78427        2.47871        0.86818
C          2.09967        3.16286       -0.52986
C          1.41111        4.28128        0.09260
C         -0.01532        4.10522       -0.11846
C         -0.20213        2.86796       -0.85468
C          1.10237        2.29699       -1.13060
H          3.18244        3.02751       -0.58216
H          1.88471        5.11993        0.60789
H         -0.80628        4.77850        0.21941
H         -1.15961        2.46271       -1.18336
H          1.29697        1.40246       -1.72527
