111
-148.55673089
P         -1.67494        2.77443       -0.00896
P         -0.52771       -0.11623        0.53347
C         -1.68060        2.10279        1.67856
C         -1.24448        0.81346        1.90080
C         -0.51748        4.20917       -0.14742
C          0.64795        3.86908       -1.05206
C         -2.09151        2.88099        2.74180
H         -2.39628        3.90006        2.56827
C         -2.08698        2.35534        4.02242
H         -2.41140        2.96139        4.85253
C         -1.66164        1.05846        4.23933
H         -1.65298        0.65203        5.23728
C         -1.22878        0.28755        3.17533
H         -0.86095       -0.71476        3.32963
Pd        -1.30693        0.94017       -1.36210
Cl        -1.93338        2.20868       -3.10257
Cl        -0.88444       -0.91810       -2.55172
C         -1.41759        5.34414       -0.67620
C         -3.26706        3.59063       -0.48575
H          1.32996        4.71561       -1.16123
H          1.21896        3.02233       -0.66599
H          0.29497        3.59553       -2.04845
H         -1.27618        5.42648       -1.76258
H         -1.09497        6.31226       -0.26428
H         -3.43414        3.32380       -1.53766
C         -2.92177        5.08648       -0.37372
C         -4.43557        3.13495        0.36221
H         -0.17662        4.42595        0.87348
H         -3.15881        5.43124        0.64216
H         -3.56465        5.67833       -1.04320
H         -4.28440        3.39026        1.41135
H         -5.36726        3.60706        0.04229
H         -4.56720        2.05202        0.30455
C         -0.85963       -4.64800        0.74683
C          0.32777       -4.00568        1.18197
C          0.39263       -2.62467        1.10001
C         -0.68480       -1.88994        0.67881
C         -1.87058       -2.49724        0.36044
C         -2.00329       -3.87522        0.41897
O         -0.89089       -6.06059        0.60190
C          1.55188       -4.78041        1.69471
H          1.29999       -2.10029        1.34612
H         -2.68973       -1.87589        0.04096
C         -3.36169       -4.50922        0.08138
C          3.74054        1.32126       -0.12265
C          3.17007        0.37075       -1.00769
C          1.87028       -0.04312       -0.77398
C          1.17924        0.38509        0.32752
C          1.75868        1.22709        1.23936
C          3.05309        1.68586        1.06363
O          4.97792        1.93963       -0.44498
C          3.90933       -0.17475       -2.23839
H          1.35358       -0.67212       -1.47823
H          1.17378        1.54293        2.08501
C          3.66854        2.60444        2.13030
C          2.34092       -3.93552        2.72104
C          1.13027       -6.07595        2.41148
C          2.47886       -5.10442        0.51315
C         -4.51814       -3.55774        0.46400
C         -3.43149       -4.78140       -1.42904
C         -3.57802       -5.81458        0.86836
C         -0.49081       -6.51921       -0.68357
H          1.68532       -3.57855        3.51490
H          3.13259       -4.52642        3.18118
H          2.81636       -3.07390        2.25464
H          0.63567       -6.76396        1.73056
H          1.99439       -6.59133        2.83000
H          0.43925       -5.85683        3.22477
H          3.36332       -5.64601        0.84755
H          1.97217       -5.71468       -0.23048
H          2.80897       -4.18982        0.02123
H         -5.48162       -4.05315        0.34605
H         -4.43052       -3.23921        1.50241
H         -4.53642       -2.67075       -0.16739
H         -4.39291       -5.21417       -1.70425
H         -3.30238       -3.85765       -1.99264
H         -2.65091       -5.47035       -1.74222
H         -4.56767       -6.22839        0.67650
H         -2.84709       -6.57056        0.59289
H         -3.48657       -5.63640        1.93928
H          0.37523       -7.17358       -0.58594
H         -1.30013       -7.09221       -1.13577
H         -0.23872       -5.67505       -1.32675
C          4.84947        3.12457       -1.22146
C          3.43688       -1.61104       -2.56185
C          3.60913        0.72405       -3.44772
C          5.42660       -0.24816       -1.99026
C          3.08795        2.28413        3.52680
C          5.19220        2.40527        2.22128
C          3.34315        4.06703        1.79062
H          3.51475       -2.25103       -1.68347
H          2.40468       -1.62881       -2.90814
H          4.04606       -2.05025       -3.35144
H          4.10797        0.35393       -4.34295
H          2.53804        0.75605       -3.64662
H          3.94311        1.74417       -3.27400
H          5.64209       -0.85239       -1.10964
H          5.94170       -0.69292       -2.84134
H          5.85136        0.73916       -1.82839
H          2.03570        2.55569        3.59859
H          3.18516        1.22255        3.75283
H          3.61462        2.84091        4.30154
H          5.68577        2.68969        1.29540
H          5.61941        3.00944        3.02126
H          5.43125        1.36107        2.41997
H          3.74178        4.34488        0.81798
H          3.76515        4.74353        2.53334
H          2.26542        4.22550        1.76456
H          5.38123        3.00393       -2.16509
H          3.79884        3.33731       -1.42174
H          5.29421        3.96294       -0.68563
