111
-148.55003716
P         -2.55648        2.02317       -0.38029
P          0.07042        0.44870        0.46308
C         -1.85524        2.25809        1.27291
C         -0.70869        1.58181        1.62928
C         -2.93598        3.64494       -1.18671
C         -2.12434        3.82131       -2.45162
C         -2.45321        3.12029        2.16929
H         -3.33801        3.66198        1.87730
C         -1.90850        3.28946        3.43053
H         -2.37634        3.96046        4.13231
C         -0.76586        2.60072        3.78984
H         -0.34218        2.73120        4.77201
C         -0.16331        1.74476        2.88527
H          0.73042        1.20183        3.14916
Pd        -1.11307        0.63847       -1.53160
Cl        -2.55640        0.60725       -3.24284
Cl         0.52441       -0.60537       -2.43644
C         -4.46088        3.58195       -1.42052
C         -4.23097        1.23507       -0.42252
H         -1.05216        3.76371       -2.24809
H         -2.36464        3.03987       -3.17439
H         -2.32731        4.78365       -2.92758
H         -4.70710        4.08914       -2.36458
H         -4.98376        4.14959       -0.63691
H         -4.08895        0.21596       -0.80762
C         -4.98844        2.11909       -1.43399
C         -4.87106        1.20521        0.94866
H         -2.67902        4.42467       -0.45674
H         -6.06594        2.09168       -1.21441
H         -4.87932        1.70274       -2.44632
H         -5.83237        0.68616        0.93208
H         -4.22864        0.70739        1.67650
H         -5.05267        2.21825        1.31109
C         -1.25238       -3.85577        1.07735
C          0.04720       -3.59668        0.57066
C          0.43838       -2.27713        0.41567
C         -0.37432       -1.24874        0.81495
C         -1.58475       -1.49609        1.40962
C         -2.03139       -2.79323        1.60416
O         -1.79821       -5.16390        0.99258
C          1.00226       -4.71358        0.12392
H          1.37016       -2.03207       -0.06386
H         -2.19229       -0.65568        1.69726
C         -3.36671       -3.01850        2.32946
C          4.54541        1.21944        0.08243
C          3.65311        1.69022       -0.91393
C          2.29811        1.46351       -0.73958
C          1.83356        0.72073        0.31397
C          2.70183        0.16788        1.21962
C          4.06845        0.37276        1.11537
O          5.90732        1.62249        0.06427
C          4.12801        2.43745       -2.17029
H          1.58116        1.86129       -1.43725
H          2.29308       -0.42726        2.01768
C          5.00960       -0.29051        2.13355
C          0.80713       -4.97204       -1.37770
C          2.46972       -4.30028        0.37279
C          0.76378       -6.00935        0.92046
C         -4.51732       -2.87081        1.32227
C         -3.42336       -4.40562        2.99541
C         -3.54591       -1.97834        3.45800
C         -2.50886       -5.40440       -0.21605
H          0.99819       -4.06595       -1.95229
H          1.48568       -5.74727       -1.73251
H         -0.21042       -5.29110       -1.59215
H          3.14666       -5.12694        0.15848
H          2.77045       -3.46786       -0.26134
H          2.61395       -4.01129        1.41320
H         -0.22662       -6.41541        0.73114
H          1.49044       -6.77502        0.64986
H          0.84943       -5.82324        1.99051
H         -4.43378       -3.60312        0.52188
H         -5.48288       -3.00953        1.80783
H         -4.50741       -1.88123        0.86670
H         -4.34188       -4.52760        3.56897
H         -3.38960       -5.20293        2.25761
H         -2.58019       -4.54124        3.67186
H         -2.69204       -1.99296        4.13477
H         -3.65112       -0.96844        3.06819
H         -4.44079       -2.19137        4.04228
H         -3.55102       -5.63113        0.00806
H         -2.46125       -4.52834       -0.86427
H         -2.07429       -6.26068       -0.73177
C          6.16091        2.84003        0.75383
C          3.17520        2.16181       -3.35677
C          4.14264        3.94790       -1.89232
C          5.52743        1.96254       -2.60180
C          5.20376        0.65014        3.33228
C          4.41528       -1.62240        2.64220
C          6.37054       -0.62559        1.49586
H          3.03311        1.09073       -3.49850
H          2.19841        2.61864       -3.20540
H          3.57952        2.57170       -4.28194
H          4.81870        4.19239       -1.07652
H          4.46322        4.50364       -2.77315
H          3.14859        4.29827       -1.61536
H          6.27524        2.19297       -1.84717
H          5.53408        0.88462       -2.76009
H          5.83615        2.44382       -3.52943
H          5.86103        0.20281        4.07749
H          5.64108        1.59654        3.02328
H          4.24877        0.86689        3.81043
H          5.12985       -2.14867        3.27472
H          3.51718       -1.46465        3.23736
H          4.16615       -2.27440        1.80629
H          7.01173       -1.15836        2.19766
H          6.89736        0.27423        1.18829
H          6.23718       -1.25249        0.61481
H          6.58856        3.56856        0.06527
H          5.23755        3.23718        1.17733
H          6.88083        2.66399        1.55293
