87
-129.17857650
P         -1.50443       -0.40634       -0.28704
P          1.76863        0.20354        0.28969
C         -1.06313        0.77463       -1.57149
C          1.64049       -0.92828       -1.12203
C          0.03205        0.52679       -2.38999
C          0.35721        1.46204       -3.39326
C         -0.43378        2.58848       -3.54768
C         -1.52183        2.81139       -2.73063
C         -1.83306        1.89953       -1.74164
C          2.34406       -2.10210       -0.98645
C          2.25028       -3.09559       -1.94092
C          1.43032       -2.91471       -3.03214
C          0.70280       -1.74839       -3.18977
C          0.81622       -0.72524       -2.22811
Cl         1.23965       -0.35253        3.36212
Cl        -1.79792       -0.97315        2.88518
H         -2.12483        3.69514       -2.86009
H         -2.68688        2.06320       -1.10596
H          2.97006       -2.24768       -0.12184
H          2.80654       -4.01145       -1.82583
H         -0.18363        3.29995       -4.31629
H          1.34172       -3.69023       -3.77403
C         -2.40269       -4.40973       -2.23838
C         -2.93423       -3.24604       -2.77673
C         -2.65571       -2.03755       -2.14799
C         -1.85938       -2.00186       -1.02704
C         -1.33410       -3.15919       -0.50159
C         -1.60664       -4.36934       -1.11064
H         -2.61918       -5.35205       -2.71218
C         -3.80767       -3.29211       -3.98070
H         -3.05603       -1.11830       -2.54372
H         -0.71302       -3.11390        0.37809
H         -1.19701       -5.27997       -0.70527
C         -5.22800        1.11892        1.85353
C         -5.27465       -0.07229        1.15723
C         -4.14655       -0.53434        0.50653
C         -2.98381        0.19884        0.55035
C         -2.93534        1.38502        1.24500
C         -4.05627        1.86063        1.91411
H         -6.10539        1.48057        2.36209
H         -6.18771       -0.64383        1.12421
H         -4.16719       -1.46752       -0.03195
H         -2.01832        1.94765        1.27120
C         -3.99876        3.14684        2.66027
C          5.89353       -0.17669        2.19449
C          4.94190       -1.14716        2.43587
C          3.68463       -1.03596        1.87315
C          3.38516        0.04192        1.07230
C          4.33385        1.00991        0.83206
C          5.60085        0.92037        1.39686
H          6.87514       -0.26299        2.62849
H          5.17667       -1.98924        3.06615
H          2.92767       -1.77721        2.07441
H          4.09044        1.84881        0.20320
C          6.63053        1.95820        1.11759
C          0.82003        4.59064       -0.42491
C          1.69684        3.93774       -1.26858
C          1.99492        2.60514       -1.05526
C          1.40919        1.93798       -0.00551
C          0.55922        2.59362        0.85565
C          0.24737        3.93286        0.65476
H          0.57554        5.62506       -0.59661
H          2.13949        4.46208       -2.09954
H          2.66557        2.07545       -1.71294
H          0.15891        2.06897        1.70658
C         -0.70069        4.64013        1.55707
Pd        -0.03029       -0.64351        1.52660
C          1.53309        1.26879       -4.28650
C         -0.18664       -1.60957       -4.37701
H          2.11901        2.18603       -4.36146
H          2.19468        0.48611       -3.91355
H          1.21569        0.99139       -5.29243
H         -0.91060       -0.80510       -4.24417
H          0.39389       -1.39720       -5.27549
H         -0.74776       -2.52881       -4.55061
H         -4.84419       -3.48393       -3.69992
H         -3.77623       -2.34796       -4.52658
H         -3.49198       -4.08075       -4.66528
H         -4.83734        3.24212        3.35137
H         -3.08041        3.21627        3.24488
H         -4.03050        3.99502        1.97505
H          6.16956        2.92992        0.93435
H          7.31481        2.07042        1.95980
H          7.21885        1.69338        0.23793
H         -1.69518        4.68708        1.11138
H         -0.78375        4.13191        2.51871
H         -0.36963        5.66146        1.75033
