111
-148.55904221
P         -2.49821        2.10439        0.60822
P          0.08144        0.29164        0.44206
C         -1.54169        1.77314        2.11060
C         -0.40327        1.00223        2.02692
C         -3.18414        3.82272        0.60151
C         -2.42767        4.71192       -0.36117
C         -1.94715        2.27309        3.33162
H         -2.85060        2.85694        3.39578
C         -1.19960        2.00873        4.46627
H         -1.51406        2.40010        5.41999
C         -0.05352        1.24197        4.37834
H          0.52811        1.03548        5.26166
C          0.34312        0.73246        3.15494
H          1.23015        0.12442        3.07100
Pd        -1.16191        1.44000       -1.14674
Cl        -2.68528        2.22925       -2.58729
Cl         0.30924        0.76956       -2.70226
C         -4.66391        3.59506        0.23905
C         -4.06143        1.12009        0.51535
H         -2.48781        4.32134       -1.37812
H         -2.83507        5.72558       -0.37288
H         -1.36939        4.77382       -0.09627
H         -4.77729        3.68694       -0.85003
H         -5.29156        4.39007        0.66979
H         -4.09596        0.70186       -0.49933
C         -5.15545        2.19009        0.69191
C         -4.08119        0.02043        1.55625
H         -3.09582        4.20193        1.62732
H         -5.44525        2.22802        1.75102
H         -6.06660        1.89878        0.14752
H         -5.00677       -0.55809        1.50956
H         -3.24346       -0.66836        1.42480
H         -4.00248        0.43877        2.56137
C         -1.35524       -4.03564        0.42707
C         -1.94046       -3.09754       -0.46353
C         -1.48982       -1.78943       -0.42423
C         -0.44610       -1.42034        0.38438
C          0.20668       -2.35111        1.15028
C         -0.19575       -3.67719        1.16443
O         -1.97599       -5.29317        0.64110
C         -3.03280       -3.45029       -1.48759
H         -1.96553       -1.04171       -1.03360
H          1.03815       -2.02722        1.75329
C          0.64741       -4.67703        1.97385
C          4.49905        0.84717       -0.50783
C          3.82964       -0.32855       -0.93312
C          2.48588       -0.46482       -0.62620
C          1.83301        0.47459        0.12745
C          2.50034        1.56287        0.62602
C          3.84714        1.75566        0.36504
O          5.80271        1.13861       -0.99007
C          4.51762       -1.42436       -1.76153
H          1.91806       -1.30010       -0.99830
H          1.94661        2.27182        1.21722
C          4.56774        2.95513        1.00029
C         -2.66497       -2.84020       -2.85896
C         -3.17130       -4.96868       -1.69292
C         -4.37889       -2.86892       -1.02534
C          0.30541       -6.14028        1.64283
C          2.14066       -4.47833        1.63519
C          0.43065       -4.42783        3.47556
C         -2.94364       -5.25660        1.67688
H         -2.66397       -1.75183       -2.83231
H         -1.67506       -3.16971       -3.17311
H         -3.37921       -3.14421       -3.62362
H         -2.21066       -5.40989       -1.95629
H         -3.52615       -5.45774       -0.78877
H         -3.87968       -5.19462       -2.48959
H         -5.16808       -3.09842       -1.74078
H         -4.67309       -3.27497       -0.05946
H         -4.32159       -1.78566       -0.92799
H          0.98215       -6.82670        2.15119
H         -0.70720       -6.38830        1.95182
H          0.38073       -6.31944        0.57086
H          2.75810       -5.20982        2.15593
H          2.30784       -4.59933        0.56548
H          2.49476       -3.49009        1.92358
H          1.03200       -5.11112        4.07467
H          0.70935       -3.40994        3.74642
H         -0.61304       -4.57032        3.74997
H         -3.38093       -6.24816        1.79570
H         -2.47730       -4.95377        2.61321
H         -3.72897       -4.54409        1.42996
C          5.81464        1.89337       -2.19547
C          3.90263       -2.80716       -1.44935
C          4.32195       -1.12308       -3.25518
C          6.01785       -1.52033       -1.42956
C          4.43843        4.17495        0.07568
C          3.93996        3.30382        2.36928
C          6.05258        2.63883        1.25634
H          4.46153       -3.60042       -1.94529
H          3.92382       -3.00273       -0.37794
H          2.87188       -2.88020       -1.79262
H          3.26162       -1.08421       -3.50383
H          4.75838       -0.16383       -3.52358
H          4.78685       -1.89052       -3.87340
H          6.54424       -0.60843       -1.69912
H          6.16465       -1.68748       -0.36303
H          6.48672       -2.34255       -1.96959
H          4.89125        3.98406       -0.89427
H          3.39040        4.42272       -0.09099
H          4.92711        5.04712        0.50923
H          4.52618        4.06710        2.88051
H          2.92964        3.69575        2.26241
H          3.90078        2.42517        3.01269
H          6.58640        2.46033        0.32625
H          6.15389        1.74835        1.87583
H          6.54708        3.46517        1.76635
H          4.79587        2.13102       -2.50450
H          6.37367        2.81647       -2.04290
H          6.30800        1.32221       -2.98165
