59
-75.80039691
Cl         1.45822        0.53537        2.36213
P          1.55216       -0.09290       -0.73140
P         -1.67559       -0.14353       -0.86198
C          0.63380        0.37502       -2.26864
H          0.43224        1.44724       -2.23368
H          1.29222        0.19973       -3.12486
C         -0.64611       -0.40835       -2.37354
H         -0.43704       -1.47619       -2.46355
H         -1.23618       -0.12328       -3.24982
C          2.30629       -1.76081       -1.03213
H          1.67219       -2.23274       -1.79385
C          3.13827        0.85408       -0.59943
H          3.50180        0.71977        0.42600
C         -2.86052       -1.52204       -0.48834
H         -2.83449       -1.64681        0.60141
C         -2.88907        1.23968       -1.12347
H         -2.84922        1.47890       -2.19306
C          3.70041       -1.43805       -1.62222
H          4.46266       -2.00114       -1.06810
H          3.77414       -1.81575       -2.65306
C          4.03566        0.08492       -1.58507
H          3.89586        0.51968       -2.58546
H          5.09753        0.24840       -1.34425
C         -4.21597       -0.94057       -0.92190
H         -4.39640       -1.20728       -1.97253
H         -5.03355       -1.40956       -0.35315
C         -4.24397        0.60171       -0.76518
H         -4.48744        0.85528        0.27581
H         -5.04890        1.04420       -1.37143
C          2.34142       -2.62427        0.22999
H          2.67987       -3.63451       -0.03991
H          1.31770       -2.75241        0.60535
C          2.98771        2.34191       -0.89805
H          3.97973        2.77091       -1.09704
H          2.42989        2.46498       -1.83473
C         -2.51028       -2.84059       -1.16814
H         -3.35699       -3.53338       -1.06430
H         -2.41155       -2.66917       -2.24775
C         -2.57798        2.48415       -0.29758
H         -3.44526        3.15834       -0.32898
H         -2.47859        2.19300        0.75592
C          3.21571       -2.07923        1.34940
H          4.25996       -1.99006        1.04746
H          3.18967       -2.71896        2.23460
H          2.88697       -1.08886        1.66049
C          2.31514        3.10313        0.23433
H          1.34985        2.66568        0.48850
H          2.14934        4.15359       -0.01499
H          2.91937        3.07148        1.14299
C         -1.25014       -3.47709       -0.60761
H         -0.39842       -2.80525       -0.70458
H         -0.99566       -4.40889       -1.11779
H         -1.35960       -3.70150        0.45519
C         -1.33560        3.22344       -0.76172
H         -1.42653        3.53788       -1.80314
H         -1.14028        4.11594       -0.16278
H         -0.45530        2.58677       -0.69354
Cl        -1.86299        0.29624        2.27161
Pd        -0.14235        0.14362        0.84275
