87
-129.18216147
P         -1.53912       -0.27391       -0.42657
P          1.72183        0.29174        0.25631
C         -1.08595        0.96950       -1.64046
C          1.52174       -0.81329       -1.16558
C          0.01904        0.73257       -2.44779
C          0.38004        1.69903       -3.40756
C         -0.38904        2.84525       -3.52838
C         -1.48701        3.05705       -2.71991
C         -1.83353        2.11364       -1.77269
C          2.13835       -2.03204       -1.00306
C          2.03322       -3.00601       -1.97718
C          1.29190       -2.75605       -3.11087
C          0.64440       -1.54544       -3.28799
C          0.76524       -0.54487       -2.30440
Cl         0.97134       -0.20317        3.34372
Cl        -1.69252       -1.84398        2.40653
H         -2.07011        3.95739       -2.82345
H         -2.69163        2.26624       -1.13954
H          2.69974       -2.22262       -0.10032
H          2.52065       -3.95806       -1.84564
H         -0.11296        3.58224       -4.26330
H          1.19619       -3.51493       -3.86889
C         -2.46932       -4.17915       -2.55275
C         -1.66816       -4.20204       -1.41935
C         -1.40441       -3.00250       -0.76991
C         -1.92854       -1.82264       -1.24333
C         -2.73187       -1.80911       -2.35933
C         -3.00544       -2.99405       -3.01717
H         -2.66973       -5.10129       -3.07115
C         -1.06201       -5.47109       -0.93355
H         -0.78466       -2.99556        0.11048
H         -3.12845       -0.87148       -2.71633
H         -3.62877       -2.99036       -3.89626
C         -5.17539        1.11051        1.94701
C         -5.24414       -0.04069        1.18822
C         -4.14251       -0.45451        0.46394
C         -2.98449        0.28649        0.49742
C         -2.91356        1.43259        1.25475
C         -4.00772        1.85951        1.99702
H         -6.03220        1.43491        2.51260
H         -6.15310       -0.61917        1.16418
H         -4.17858       -1.35852       -0.12164
H         -2.00227        2.00438        1.26908
C         -3.92811        3.10383        2.80936
C          6.09270       -0.00765        1.50754
C          5.75330        0.16464        0.18012
C          4.42260        0.24834       -0.18663
C          3.44257        0.15966        0.77527
C          3.78193       -0.01049        2.09591
C          5.11142       -0.10539        2.48391
H          7.12814       -0.06687        1.79690
H          6.52393        0.23526       -0.56993
H          4.14243        0.37667       -1.22045
H          3.00375       -0.07352        2.83478
C          5.47190       -0.26575        3.91908
C          0.80082        4.71201       -0.27556
C          1.67311        4.08736       -1.14477
C          1.96215        2.74523       -0.98478
C          1.36704        2.03839        0.03291
C          0.52830        2.66728        0.92458
C          0.22730        4.01614        0.77939
H          0.56464        5.75454       -0.40460
H          2.12158        4.64209       -1.95255
H          2.63810        2.24147       -1.65644
H          0.14049        2.11642        1.76463
C         -0.70630        4.69616        1.71700
Pd        -0.14220       -0.54985        1.43287
C          1.56915        1.51764       -4.28500
C         -0.17518       -1.33803       -4.51462
H          1.26642        1.29882       -5.30974
H          2.18092        2.42080       -4.30209
H          2.20086        0.69921       -3.93770
H          0.45934       -1.11661       -5.37357
H         -0.75651       -2.23094       -4.74879
H         -0.87845       -0.51382       -4.39176
H         -1.68477       -6.32942       -1.18936
H         -0.07731       -5.62366       -1.37768
H         -0.94368       -5.45862        0.15092
H         -2.99465        3.14144        3.37251
H         -3.97651        3.98749        2.17162
H         -4.74816        3.16270        3.52630
H          5.59853        0.70653        4.39718
H          4.69527       -0.80788        4.46057
H          6.40386       -0.82150        4.03177
H         -1.70629        4.76135        1.28624
H         -0.77831        4.15667        2.66233
H         -0.36891        5.70940        1.93975
