171
-217.83629013
P         -1.69903        0.66912        0.27796
P          1.46326       -0.16890       -0.28303
C         -0.98383        1.78534       -0.95103
C          0.57691       -0.90335       -1.67362
C         -0.33881        1.36482       -2.10766
C          0.27150        2.32921       -2.93177
C          0.18808        3.66743       -2.58617
C         -0.46606        4.06730       -1.44084
C         -1.04092        3.11816       -0.61821
C          0.71055       -2.23604       -1.97904
C          0.01545       -2.77785       -3.04246
C         -0.82490       -1.98022       -3.79116
C         -0.98124       -0.63543       -3.49694
C         -0.24685       -0.08102       -2.43149
Cl         2.14282        1.35175        2.55102
Cl        -0.95748        0.69752        3.46499
C         -1.90358        0.20991       -4.30488
C          1.03280        1.94754       -4.15299
H         -0.51910        5.11193       -1.18112
H         -1.53178        3.41302        0.29766
H          1.34803       -2.86020       -1.37728
H          0.12358       -3.82270       -3.28322
H          0.65599        4.39975       -3.22248
H         -1.37100       -2.40316       -4.61721
C         -2.79433       -3.61372       -0.73551
C         -1.69858       -3.40351        0.09248
C         -1.34807       -2.09155        0.38998
C         -2.05708       -1.04302       -0.15050
C         -3.13706       -1.27375       -0.96666
C         -3.53224       -2.56819       -1.27508
H         -3.08755       -4.62479       -0.94600
H         -0.51727       -1.88234        1.03893
H         -3.69620       -0.43474       -1.34386
C         -5.71011        2.44182        1.43738
C         -5.31827        2.44108        0.10317
C         -4.07423        1.90798       -0.20774
C         -3.26180        1.40288        0.77736
C         -3.66460        1.41406        2.08729
C         -4.89884        1.93531        2.44691
H         -6.66885        2.84779        1.69628
H         -3.73171        1.88850       -1.22939
H         -2.99968        1.02463        2.83632
C          4.01873       -3.37004        1.72784
C          3.13960       -2.64603        2.52174
C          2.34799       -1.68638        1.90605
C          2.44142       -1.44575        0.55516
C          3.33722       -2.15895       -0.20381
C          4.13118       -3.14781        0.36134
H          4.63912       -4.11149        2.19496
H          1.66526       -1.10844        2.49812
H          3.42291       -1.94481       -1.25484
C          4.44457        2.79173       -1.98906
C          3.73032        3.15478       -0.85339
C          2.82419        2.23997       -0.33693
C          2.63422        1.02321       -0.93969
C          3.33468        0.68812       -2.07291
C          4.26201        1.56738       -2.62017
H          5.17547        3.46912       -2.38819
H          2.27699        2.47143        0.55882
H          3.13859       -0.26158       -2.53914
Pd         0.24090        0.67295        1.57604
C          0.28588       -4.19046        1.47801
C         -0.96102       -4.61412        0.68425
C         -0.50683       -5.55518       -0.44808
C         -1.91265       -5.36519        1.63261
H          0.01952       -3.55720        2.32358
H          0.80923       -5.06313        1.86757
H          0.98296       -3.64750        0.84251
H          0.02904       -6.41517       -0.04667
H         -1.35318       -5.93080       -1.02127
H          0.16094       -5.03729       -1.13501
H         -1.41659       -6.22430        2.08394
H         -2.25089       -4.71007        2.43526
H         -2.79312       -5.72694        1.10265
C         -5.01986       -4.28420       -2.42622
C         -4.79605       -2.79138       -2.11779
C         -4.66991       -2.03638       -3.45297
C         -6.01235       -2.25949       -1.33778
H         -5.17168       -4.85700       -1.51164
H         -5.90348       -4.42178       -3.04936
H         -4.16832       -4.70437       -2.96134
H         -5.55307       -2.19002       -4.07283
H         -4.55963       -0.96460       -3.29462
H         -3.80283       -2.38837       -4.01038
H         -5.90649       -1.19693       -1.12213
H         -6.93244       -2.39704       -1.90543
H         -6.11890       -2.78235       -0.38755
C         -6.51360        1.86367       -2.02348
C         -6.19722        2.99491       -1.02718
C         -5.43927        4.12440       -1.75019
C         -7.52609        3.56223       -0.49264
H         -7.14293        2.22452       -2.83678
H         -5.60358        1.45621       -2.46247
H         -7.03972        1.04923       -1.52616
H         -6.04608        4.55375       -2.54718
H         -5.18231        4.92230       -1.05374
H         -4.51445        3.75986       -2.19599
H         -8.13383        3.95559       -1.30748
H         -8.10886        2.79015        0.00939
H         -7.35043        4.37632        0.21035
C         -4.28767        2.74434        4.73984
C         -5.31131        1.93060        3.92587
C         -5.34126        0.47829        4.43751
C         -6.70603        2.55152        4.13306
H         -4.56307        2.77532        5.79379
H         -3.29074        2.31093        4.66927
H         -4.23290        3.76948        4.37429
H         -6.04184       -0.12039        3.85570
H         -4.35965        0.01195        4.36149
H         -5.64877        0.43872        5.48228
H         -6.98095        2.54077        5.18772
H         -6.72774        3.58825        3.79764
H         -7.46838        1.99469        3.58849
C          2.81403       -4.35205        4.34531
C          3.10682       -2.87132        4.04117
C          2.02112       -2.01251        4.72161
C          4.47480       -2.48266        4.63044
H          1.84534       -4.64538        3.94334
H          3.56998       -5.00561        3.91210
H          2.79714       -4.53144        5.42020
H          2.21108       -0.94932        4.57586
H          1.03181       -2.24309        4.32726
H          1.99908       -2.19668        5.79546
H          4.70400       -1.43982        4.41184
H          4.48535       -2.61163        5.71256
H          5.27277       -3.09526        4.21225
C          6.11205       -2.96763       -1.16278
C          5.09309       -3.93772       -0.53653
C          4.28742       -4.63441       -1.64987
C          5.86067       -5.01280        0.25612
H          6.67735       -2.45017       -0.38797
H          6.81873       -3.50003       -1.79909
H          5.61644       -2.21377       -1.77294
H          3.77509       -3.91012       -2.28215
H          4.93913       -5.23022       -2.28862
H          3.53447       -5.29686       -1.22295
H          6.52910       -5.57204       -0.39846
H          6.46900       -4.56283        1.04045
H          5.17519       -5.72531        0.71475
C          4.42386        4.24071        1.29488
C          3.92438        4.49921       -0.13886
C          2.57908        5.24682       -0.09084
C          4.95124        5.38890       -0.86486
H          4.58668        5.17777        1.82681
H          3.70413        3.65444        1.86495
H          5.36473        3.69112        1.28118
H          1.82794        4.67636        0.45424
H          2.68612        6.21273        0.40224
H          2.20165        5.42183       -1.09792
H          5.06680        6.34345       -0.35156
H          5.93071        4.91214       -0.89712
H          4.63418        5.59941       -1.88616
C          4.61982       -0.10904       -4.50171
C          5.12243        1.18711       -3.83455
C          6.57119        0.96972       -3.36323
C          5.08595        2.31306       -4.88612
H          4.69706       -0.95873       -3.82410
H          3.58063       -0.01062       -4.81476
H          5.21195       -0.34321       -5.38627
H          6.97796        1.87680       -2.91708
H          6.61804        0.17959       -2.61405
H          7.21523        0.68584       -4.19534
H          4.06581        2.50379       -5.21669
H          5.49145        3.24367       -4.49188
H          5.67550        2.04357       -5.76233
H         -2.44755        0.91080       -3.66941
H          0.53101        2.30282       -5.05419
H         -2.63879       -0.39660       -4.83499
H         -1.35431        0.78659       -5.04958
H          1.15053        0.86645       -4.23395
H          2.03077        2.38612       -4.13140
