111
-148.55440796
P         -2.70238        2.02558       -0.38638
P          0.03093        0.56339        0.27961
C         -1.90437        2.29529        1.21804
C         -0.69335        1.69380        1.48389
C         -3.46646        3.57969       -1.03904
C         -2.65690        4.15693       -2.17964
C         -2.50414        3.08829        2.17524
H         -3.45926        3.54276        1.96840
C         -1.88280        3.28115        3.39723
H         -2.35043        3.89976        4.14576
C         -0.66656        2.68006        3.65973
H         -0.18463        2.82773        4.61216
C         -0.07158        1.88003        2.70076
H          0.86923        1.38922        2.89491
Pd        -1.15000        0.92248       -1.68512
Cl        -2.53036        1.08733       -3.44036
Cl         0.54805       -0.13027       -2.72310
C         -4.88862        3.12910       -1.42163
C         -4.19397        0.93430       -0.30267
H         -2.59308        3.44883       -3.00702
H         -3.10803        5.07411       -2.56541
H         -1.63584        4.38635       -1.86543
H         -4.89610        2.85282       -2.48504
H         -5.59531        3.96780       -1.32906
H         -4.09657        0.22397       -1.13470
C         -5.35256        1.91313       -0.56947
C         -4.27276        0.20399        1.02013
H         -3.50269        4.28378       -0.19792
H         -5.74431        2.26850        0.39358
H         -6.19116        1.39061       -1.05438
H         -5.16798       -0.41935        1.07997
H         -3.40250       -0.43899        1.16668
H         -4.30287        0.90977        1.85224
C         -1.16292       -3.72560        1.24750
C         -0.45040       -3.43331        0.05660
C         -0.14114       -2.11156       -0.21125
C         -0.43328       -1.11859        0.68459
C         -1.02368       -1.40908        1.88631
C         -1.37490       -2.70809        2.21303
O         -1.69322       -5.02611        1.45917
C         -0.02856       -4.51240       -0.95233
H          0.31984       -1.82814       -1.14115
H         -1.21201       -0.60002        2.56936
C         -1.99682       -2.99503        3.58892
C          4.56786        0.87205        0.04430
C          3.76623        1.64721       -0.83263
C          2.38893        1.57034       -0.70480
C          1.81104        0.70154        0.18262
C          2.57945       -0.12871        0.95654
C          3.96218       -0.09351        0.88793
O          5.97165        1.08140        0.09943
C          4.36596        2.55521       -1.91811
H          1.74335        2.17958       -1.31367
H          2.07765       -0.81582        1.61607
C          4.77976       -1.08556        1.72982
C         -1.13273       -4.68102       -2.00678
C          1.27929       -4.10265       -1.66856
C          0.24833       -5.85360       -0.24948
C         -3.52699       -2.90147        3.48934
C         -1.58363       -4.38729        4.09976
C         -1.51024       -1.96680        4.63539
C         -2.99783       -5.21363        0.92518
H         -2.07135       -4.98574       -1.55013
H         -1.30933       -3.74252       -2.53191
H         -0.85647       -5.43385       -2.74453
H          1.65323       -4.91765       -2.28772
H          1.12988       -3.24641       -2.32446
H          2.05392       -3.84888       -0.94550
H          0.60864       -6.59989       -0.95708
H          1.00242       -5.73063        0.52726
H         -0.64928       -6.25025        0.21795
H         -3.99396       -3.10917        4.45176
H         -3.83312       -1.90405        3.17591
H         -3.91967       -3.61128        2.76555
H         -0.49837       -4.47748        4.13274
H         -1.96995       -4.56750        5.10263
H         -1.96454       -5.17511        3.45443
H         -1.89982       -0.97017        4.43235
H         -1.84636       -2.24345        5.63444
H         -0.42186       -1.91447        4.65108
H         -2.97650       -6.00089        0.17192
H         -3.67599       -5.52261        1.72052
H         -3.36147       -4.28909        0.47483
C          6.37242        2.08275        1.02589
C          4.57798        3.96452       -1.34581
C          5.69845        1.98818       -2.44105
C          3.41281        2.65086       -3.13191
C          6.08487       -1.47441        1.01184
C          5.09400       -0.45560        3.09496
C          3.98542       -2.39206        1.95984
H          3.63394        4.38695       -1.00247
H          5.26007        3.94754       -0.49907
H          4.99307        4.63336       -2.09935
H          6.08883        2.59412       -3.25829
H          6.45383        1.96446       -1.65960
H          5.56435        0.97071       -2.80683
H          2.50258        3.19673       -2.88869
H          3.88957        3.17678       -3.95869
H          3.13266        1.65803       -3.48314
H          5.87236       -1.88043        0.02340
H          6.73904       -0.61514        0.88588
H          6.63429       -2.22675        1.57716
H          5.67385        0.45743        2.98307
H          4.17496       -0.20211        3.62295
H          5.66447       -1.14219        3.71995
H          4.60911       -3.14415        2.44248
H          3.63555       -2.80478        1.01399
H          3.12239       -2.23196        2.60450
H          5.50340        2.49651        1.53902
H          7.05508        1.65053        1.75734
H          6.89762        2.87948        0.49946
