111
-148.55146978
P         -2.18074        2.20191        1.40326
P          0.13991        0.23130        0.51958
C         -1.09843        1.47075        2.65548
C         -0.12027        0.58034        2.27109
C         -2.34663        4.02669        1.64215
C         -2.03018        4.75203        0.35238
C         -1.27304        1.77100        3.99121
H         -2.02710        2.48417        4.28199
C         -0.48067        1.15548        4.94467
H         -0.61746        1.38720        5.98832
C          0.47617        0.23595        4.56044
H          1.08441       -0.25374        5.30305
C          0.65453       -0.05478        3.21979
H          1.38635       -0.78312        2.90672
Pd        -1.53111        1.36111       -0.64643
Cl        -3.39795        2.24348       -1.52947
Cl        -0.85394        0.43258       -2.57548
C         -3.80780        4.18854        2.10983
C         -3.95465        1.68529        1.57325
H         -2.12714        5.83451        0.46600
H         -1.01382        4.53624        0.01347
H         -2.71343        4.44001       -0.43991
H         -4.19602        5.16004        1.77061
H         -3.84812        4.22110        3.20853
H         -4.19789        1.11621        0.66583
C         -4.70863        3.03053        1.59631
C         -4.18292        0.83106        2.80235
H         -1.63923        4.31338        2.43220
H         -5.61122        2.93582        2.21736
H         -5.06856        3.27256        0.58548
H         -5.21560        0.47902        2.85935
H         -3.52719       -0.04226        2.80812
H         -3.98125        1.39982        3.71106
C         -1.13536       -4.05418       -0.32380
C         -2.07216       -3.10584        0.16734
C         -1.62152       -1.82643        0.44850
C         -0.32988       -1.45772        0.17709
C          0.54482       -2.33192       -0.41206
C          0.16280       -3.62841       -0.71323
O         -1.47189       -5.43185       -0.35989
C         -3.56798       -3.40153        0.36973
H         -2.28312       -1.09425        0.88043
H          1.53870       -1.98761       -0.63952
C          1.16126       -4.51766       -1.47379
C          4.40998        0.97577       -0.92295
C          4.12037        1.06796        0.46201
C          2.81868        0.84373        0.87794
C          1.81488        0.59855       -0.02391
C          2.07636        0.62188       -1.36902
C          3.35084        0.85046       -1.85664
O          5.75896        0.97158       -1.36743
C          5.20454        1.36459        1.51009
H          2.57450        0.85348        1.92387
H          1.25497        0.45752       -2.04259
C          3.56338        0.94271       -3.37634
C         -3.87018       -3.51373        1.87287
C         -4.40331       -2.24741       -0.22892
C         -4.00936       -4.69153       -0.34301
C          1.81489       -3.70256       -2.61228
C          2.25914       -4.99754       -0.51076
C          0.47674       -5.73195       -2.12493
C         -1.17386       -6.10478        0.85171
H         -3.59145       -2.59928        2.39528
H         -4.93205       -3.68815        2.04451
H         -3.31824       -4.33533        2.32523
H         -4.24796       -1.31453        0.30927
H         -4.13840       -2.08171       -1.27279
H         -5.46831       -2.47319       -0.18320
H         -5.08749       -4.83208       -0.26953
H         -3.74138       -4.65765       -1.39844
H         -3.53317       -5.56609        0.09389
H          1.05420       -3.25416       -3.25080
H          2.44561       -2.90469       -2.22433
H          2.44497       -4.33807       -3.23406
H          1.84253       -5.59926        0.29436
H          2.99801       -5.60377       -1.03427
H          2.77728       -4.15145       -0.06010
H          1.17886       -6.29818       -2.73643
H          0.07580       -6.40788       -1.37319
H         -0.34804       -5.41221       -2.76087
H         -0.10684       -6.04678        1.05890
H         -1.71672       -5.64732        1.67710
H         -1.46698       -7.15108        0.76303
C          6.32455       -0.32800       -1.48433
C          5.84536        0.04489        1.96557
C          6.28052        2.30675        0.94004
C          4.59662        2.06834        2.74472
C          4.74898        1.86348       -3.71796
C          3.80342       -0.46375       -3.94501
C          2.31591        1.54514       -4.06288
H          5.09536       -0.62026        2.39305
H          6.31199       -0.47449        1.13207
H          6.60988        0.22248        2.72151
H          7.01497        2.56910        1.70111
H          6.81468        1.84412        0.11367
H          5.82876        3.22753        0.57256
H          5.38005        2.39452        3.42846
H          4.02480        2.94715        2.44785
H          3.94045        1.40420        3.30546
H          4.60552        2.85118       -3.28115
H          5.68533        1.46392       -3.33707
H          4.85577        1.98151       -4.79598
H          3.97784       -0.42576       -5.01996
H          4.66527       -0.93664       -3.47990
H          2.93832       -1.10159       -3.76810
H          1.46046        0.87378       -4.00887
H          2.50786        1.73281       -5.11896
H          2.03756        2.49124       -3.59961
H          6.60191       -0.51643       -2.52125
H          7.22582       -0.38872       -0.87439
H          5.61108       -1.08486       -1.15577
