171
-217.83530922
P         -1.43566        0.34454       -0.37431
P          1.74122       -0.60748       -0.14978
C         -0.57892        1.26547       -1.66740
C          1.08704       -1.50511       -1.58325
C          0.17543        0.58282       -2.61240
C          0.85259        1.31258       -3.60900
C          0.73392        2.69214       -3.63542
C         -0.00686        3.35583       -2.68186
C         -0.65261        2.63762       -1.69514
C          1.28462       -2.86610       -1.60241
C          0.70116       -3.64913       -2.57889
C         -0.11619       -3.06521       -3.52183
C         -0.33851       -1.69942       -3.52293
C          0.30258       -0.89580       -2.56009
Cl         1.11837       -1.06521        3.09859
Cl        -1.89826       -1.55666        2.33527
C         -1.27853       -1.12221       -4.52386
C          1.68698        0.61470       -4.62684
H         -0.07723        4.43101       -2.70420
H         -1.19741        3.15852       -0.92722
H          1.90109       -3.32581       -0.84847
H          0.86760       -4.71403       -2.58986
H          1.23593        3.24876       -4.40840
H         -0.59589       -3.67167       -4.27156
C         -4.20808       -2.77113       -2.14546
C         -4.41989       -1.43276       -2.45732
C         -3.56255       -0.49271       -1.89964
C         -2.53891       -0.88313       -1.07323
C         -2.33925       -2.21036       -0.78519
C         -3.17628       -3.18440       -1.31217
H         -4.86570       -3.51686       -2.55069
H         -3.69585        0.55337       -2.11205
H         -1.52207       -2.48423       -0.14219
C         -3.91558        3.30664        2.05650
C         -3.15255        2.36821        2.73947
C         -2.40751        1.46938        1.99094
C         -2.42714        1.49374        0.61725
C         -3.21751        2.40917       -0.03563
C         -3.96408        3.34482        0.66837
H         -4.49101        4.01715        2.61782
H         -1.83024        0.72109        2.49973
H         -3.23929        2.41212       -1.11199
C          4.96260       -3.02955        1.93452
C          5.32395       -1.84981        1.29390
C          4.32539       -1.12564        0.65590
C          3.02421       -1.56258        0.66987
C          2.68635       -2.72812        1.31140
C          3.65134       -3.48760        1.95936
H          5.71464       -3.60788        2.43734
H          4.56408       -0.20764        0.14894
H          1.65133       -3.02460        1.33038
C          2.97893        3.73595       -0.52035
C          3.62754        2.79091       -1.30724
C          3.21544        1.46767       -1.20509
C          2.21393        1.11559       -0.33408
C          1.59567        2.06242        0.44869
C          1.95577        3.40025        0.35677
H          3.28247        4.76418       -0.57655
H          3.68571        0.70225       -1.79942
H          0.82401        1.75280        1.13041
Pd        -0.11536       -0.71266        1.25259
C         -6.56232       -0.14440       -2.47299
C         -5.58520       -0.96021       -3.33862
C         -6.34772       -2.14616       -3.95998
C         -5.04917       -0.07822       -4.48277
H         -6.95164       -0.75128       -1.65579
H         -6.06906        0.72318       -2.03685
H         -7.40664        0.21065       -3.06358
H         -6.79975       -2.77084       -3.18990
H         -7.15011       -1.79297       -4.60763
H         -5.68340       -2.76523       -4.56282
H         -5.86224        0.26397       -5.12281
H         -4.53594        0.80361       -4.10154
H         -4.34695       -0.63435       -5.10279
C         -2.79669       -5.47960       -2.25748
C         -3.00833       -4.67066       -0.96537
C         -4.27531       -5.16501       -0.24403
C         -1.79848       -4.90482       -0.03742
H         -1.90992       -5.13382       -2.78669
H         -2.66506       -6.53878       -2.03705
H         -3.64746       -5.38246       -2.93075
H         -5.15564       -5.06645       -0.87809
H         -4.18101       -6.21400        0.03612
H         -4.44989       -4.58709        0.66335
H         -0.87316       -4.57183       -0.50595
H         -1.91813       -4.37191        0.90572
H         -1.68742       -5.96379        0.19475
C         -3.99478        3.35391        4.93161
C         -3.14167        2.25417        4.27139
C         -1.69769        2.38134        4.79172
C         -3.71238        0.88107        4.67325
H         -5.03736        3.28102        4.62275
H         -3.96671        3.26492        6.01756
H         -3.62457        4.34556        4.67186
H         -1.27640        3.34977        4.52526
H         -1.66640        2.29048        5.87724
H         -1.05432        1.60656        4.37647
H         -4.72759        0.76092        4.29593
H         -3.10865        0.06903        4.26963
H         -3.73843        0.77046        5.75703
C         -3.80783        5.26723       -0.92740
C         -4.77489        4.39335       -0.10663
C         -5.57943        5.30619        0.83849
C         -5.76072        3.68283       -1.05314
H         -3.25599        4.67116       -1.65343
H         -4.34779        6.04088       -1.47292
H         -3.08285        5.75542       -0.27618
H         -6.15903        6.03464        0.27153
H         -6.27755        4.72673        1.44238
H         -4.91955        5.85992        1.50611
H         -5.23561        3.08298       -1.79529
H         -6.42298        3.02220       -0.49392
H         -6.37703        4.40514       -1.58813
C          7.27518       -1.37170       -0.19891
C          6.76989       -1.33481        1.25441
C          7.70680       -2.19570        2.12355
C          6.81339        0.11204        1.78318
H          6.65148       -0.75853       -0.84780
H          8.29771       -1.00083       -0.26731
H          7.25767       -2.39008       -0.58668
H          7.37435       -2.20964        3.16140
H          7.74938       -3.22196        1.75941
H          8.72211       -1.79962        2.10639
H          6.42464        0.16123        2.80007
H          7.83439        0.49316        1.79297
H          6.21673        0.78132        1.16503
C          3.63276       -4.59914        4.20314
C          3.29595       -4.77748        2.71178
C          4.10590       -5.94972        2.12879
C          1.79538       -5.11206        2.58768
H          3.37245       -5.49151        4.77201
H          4.69528       -4.40782        4.34859
H          3.08096       -3.75773        4.62196
H          3.89624       -6.07073        1.06611
H          5.17707       -5.78758        2.24241
H          3.85583       -6.88420        2.63083
H          1.18028       -4.32122        3.01679
H          1.50782       -5.24684        1.54503
H          1.55961       -6.03508        3.11699
C          6.07742        2.45529       -1.69018
C          4.81046        3.15204       -2.21826
C          5.06255        4.67191       -2.25144
C          4.52470        2.67978       -3.65444
H          5.96064        1.37262       -1.69948
H          6.94462        2.70322       -2.30193
H          6.28735        2.76148       -0.66554
H          4.18196        5.20666       -2.60724
H          5.32251        5.04962       -1.26278
H          5.88828        4.91205       -2.92117
H          3.62239        3.15228       -4.04000
H          5.34865        2.93595       -4.32027
H          4.38830        1.60021       -3.69707
C          0.74471        5.60685        0.31225
C          1.29341        4.48715        1.21646
C          2.34068        5.06777        2.18325
C          0.12279        3.92254        2.04309
H          0.26811        6.38689        0.90574
H          1.53657        6.07226       -0.27297
H          0.00160        5.21429       -0.38019
H          1.90044        5.83284        2.82253
H          2.74772        4.28539        2.82359
H          3.16965        5.52094        1.64063
H         -0.63987        3.49038        1.39698
H          0.46631        3.15413        2.73489
H         -0.35105        4.70912        2.62997
H         -1.47336       -0.06637       -4.33155
H          2.30162       -0.15848       -4.16298
H         -2.23620       -1.64382       -4.49124
H         -0.88152       -1.21615       -5.53557
H          2.35511        1.30796       -5.13923
H          1.06337        0.13955       -5.38444
