87
-129.18185530
P         -1.72721       -0.32327        0.05954
P          1.56258        0.32020       -0.25324
C         -1.42303        0.98968       -1.15044
C          1.22507       -0.71389       -1.68197
C         -0.57483        0.89766       -2.25195
C         -0.38156        2.03880       -3.05430
C         -1.05004        3.21054       -2.74384
C         -1.88285        3.28476       -1.64917
C         -2.05964        2.17147       -0.85053
C          1.99056       -1.82634       -1.93050
C          1.73148       -2.60659       -3.04017
C          0.70259       -2.26433       -3.89355
C         -0.08276       -1.14732       -3.65825
C          0.18972       -0.34610       -2.53155
Cl         1.42305        1.49871        2.78878
Cl        -1.22074       -0.28918        3.27785
H         -2.38611        4.20739       -1.41088
H         -2.69351        2.22217        0.02240
H          2.79498       -2.08094       -1.26076
H          2.32855       -3.48216       -3.23565
H         -0.89841        4.07786       -3.36383
H          0.49431       -2.87479       -4.75577
C         -0.75732       -4.60761       -1.11332
C         -0.26356       -4.09695        0.07894
C         -0.57878       -2.78706        0.41950
C         -1.35328       -2.01475       -0.41588
C         -1.87066       -2.54193       -1.57518
C         -1.56664       -3.84282       -1.92981
H         -0.50864       -5.61719       -1.39298
C          0.60445       -4.92678        0.95710
H         -0.25214       -2.38290        1.36256
H         -2.49679       -1.92978       -2.20370
H         -1.95365       -4.25522       -2.84714
C         -6.17723       -0.17027        1.02473
C         -5.74304       -0.14598       -0.28592
C         -4.38953       -0.19291       -0.56544
C         -3.48146       -0.25892        0.46631
C         -3.91506       -0.28408        1.76996
C         -5.26961       -0.24723        2.07158
H         -7.23021       -0.12785        1.24575
H         -6.45733       -0.08824       -1.09084
H         -4.03559       -0.16699       -1.58413
H         -3.19145       -0.32775        2.56375
C         -5.73111       -0.24642        3.48665
C          4.98934       -1.42959        2.19045
C          5.10398       -0.16544        1.64767
C          4.06686        0.35968        0.90059
C          2.92740       -0.38271        0.69598
C          2.81049       -1.64136        1.23854
C          3.83898       -2.18275        1.99967
H          5.79583       -1.84079        2.77333
H          5.99811        0.41384        1.81011
H          4.13795        1.35059        0.48284
H          1.91434       -2.21205        1.06885
C          3.70956       -3.54769        2.57833
C          2.63683        4.50487       -1.65741
C          3.21864        3.40395       -2.25496
C          2.90064        2.13227       -1.81515
C          2.00736        1.97563       -0.78147
C          1.43716        3.06995       -0.17472
C          1.74460        4.35478       -0.60464
H          2.87238        5.49557       -2.00710
H          3.91255        3.53424       -3.06913
H          3.33249        1.25978       -2.28006
H          0.74800        2.92884        0.64033
C          1.09096        5.53548        0.02191
Pd         0.02383        0.29743        1.51088
C          0.53715        2.02119       -4.22693
C         -1.19620       -0.82356       -4.59217
H         -0.02341        1.94257       -5.15916
H          1.13062        2.93557       -4.26895
H          1.23268        1.18282       -4.17832
H         -1.86111       -0.06683       -4.17411
H         -0.81109       -0.44754       -5.54082
H         -1.79722       -1.70949       -4.80226
H          1.63512       -4.91819        0.60005
H          0.59739       -4.55558        1.98279
H          0.26412       -5.96303        0.97841
H         -5.02298       -0.76956        4.13096
H         -5.83415        0.77355        3.85945
H         -6.69799       -0.74176        3.58598
H          2.73404       -3.67971        3.04830
H          3.82028       -4.30918        1.80515
H          4.46957       -3.72997        3.33930
H          0.14620        5.76249       -0.47414
H          0.88161        5.35316        1.07699
H          1.72724        6.41924       -0.04207
