111
-148.55384848
P         -2.48729        2.14480        0.88517
P          0.10492        0.37447        0.52714
C         -1.44373        1.77963        2.32325
C         -0.28978        1.04660        2.15139
C         -3.19765        3.85195        0.97739
C         -2.49231        4.80211        0.03444
C         -1.79576        2.22169        3.58264
H         -2.70949        2.77681        3.71711
C         -0.98180        1.93566        4.66527
H         -1.25564        2.28080        5.64891
C          0.17896        1.20725        4.48783
H          0.81132        0.98327        5.33111
C          0.52416        0.75692        3.22622
H          1.41809        0.17303        3.07111
Pd        -1.26624        1.48831       -0.96664
Cl        -2.87461        2.45768       -2.19325
Cl         0.07091        0.79805       -2.63402
C         -4.68751        3.61713        0.66728
C         -4.04242        1.14351        0.82172
H         -2.91321        5.80853        0.09304
H         -1.42530        4.86614        0.26076
H         -2.58734        4.46637       -0.99884
H         -4.84658        3.74479       -0.41239
H         -5.30710        4.38753        1.15109
H         -4.11928        0.76717       -0.20723
C         -5.14003        2.19004        1.09103
C         -4.00016       -0.00138        1.81047
H         -3.07467        4.18322        2.01630
H         -5.37804        2.18491        2.16361
H         -6.07291        1.90632        0.58057
H         -3.17332       -0.68055        1.59167
H         -3.85906        0.36960        2.82735
H         -4.92678       -0.57979        1.79270
C         -1.24463       -3.96155        0.17027
C         -1.22089       -3.34325        1.44725
C         -0.79489       -2.02820        1.53220
C         -0.48108       -1.31468        0.40552
C         -0.61635       -1.87335       -0.83742
C         -1.02876       -3.18384       -0.99560
O         -1.44284       -5.36378        0.06291
C         -1.61288       -4.08788        2.73301
H         -0.69119       -1.54409        2.48696
H         -0.37994       -1.26191       -1.69059
C         -1.19659       -3.74235       -2.41674
C          4.47431        0.70427       -0.70457
C          3.81072       -0.54687       -0.77568
C          2.48300       -0.60428       -0.38984
C          1.84006        0.49643        0.11240
C          2.50464        1.68293        0.27817
C          3.83726        1.80864       -0.08131
O          5.75708        0.86178       -1.29341
C          4.48300       -1.82198       -1.30781
H          1.92242       -1.51586       -0.49769
H          1.95942        2.51845        0.68266
C          4.55666        3.14262        0.17272
C         -2.70540       -5.13622        2.45456
C         -0.36858       -4.76479        3.32713
C         -2.18815       -3.10698        3.78016
C         -2.28304       -4.83173       -2.46210
C         -1.63844       -2.62513       -3.39031
C          0.14698       -4.31023       -2.89934
C         -0.23903       -6.12048        0.09423
H         -2.34698       -5.91444        1.78530
H         -3.03014       -5.61832        3.37628
H         -3.57436       -4.67062        1.99069
H          0.39993       -4.02640        3.55473
H         -0.61353       -5.29254        4.24851
H          0.05870       -5.48348        2.63195
H         -2.57190       -3.64717        4.64533
H         -1.43091       -2.41530        4.14615
H         -3.00860       -2.52712        3.35888
H         -2.00730       -5.69317       -1.85919
H         -3.22820       -4.44648       -2.08100
H         -2.44526       -5.18131       -3.48138
H         -2.51952       -2.10734       -3.01220
H         -0.85079       -1.88969       -3.54651
H         -1.88667       -3.03885       -4.36733
H          0.06207       -4.70918       -3.90976
H          0.91216       -3.53436       -2.90641
H          0.49353       -5.11034       -2.24945
H         -0.13488       -6.68255       -0.83365
H          0.62167       -5.46198        0.21853
H         -0.27569       -6.83063        0.92019
C          5.71996        1.26553       -2.65659
C          5.99027       -1.82813       -0.99611
C          3.87903       -3.07792       -0.63714
C          4.25254       -1.91915       -2.82366
C          6.05677        2.92365        0.44124
C          4.36476        4.06252       -1.04257
C          3.97543        3.84549        1.42073
H          6.50346       -1.01306       -1.50003
H          6.16093       -1.71867        0.07434
H          6.45369       -2.75961       -1.32027
H          4.43919       -3.97098       -0.91329
H          3.90605       -2.98846        0.44853
H          2.84663       -3.24311       -0.94177
H          4.70025       -2.82574       -3.22993
H          3.18670       -1.93733       -3.05021
H          4.68530       -1.06788       -3.34360
H          6.20109        2.23700        1.27468
H          6.55858        2.50395       -0.42696
H          6.55237        3.86291        0.68552
H          3.30576        4.24336       -1.22524
H          4.84976        5.02539       -0.88420
H          4.78392        3.61931       -1.94262
H          4.56533        4.72452        1.67950
H          3.97922        3.17515        2.27988
H          2.95405        4.18436        1.25433
H          6.25554        2.20746       -2.77379
H          6.21233        0.51504       -3.27470
H          4.68805        1.38955       -2.98777
