111
-148.55790349
P         -2.61158        1.87099        1.04509
P          0.17837        0.49276        0.45741
C         -1.47383        1.52518        2.41351
C         -0.23731        0.97801        2.14539
C         -3.55073        3.44451        1.30081
C         -3.00285        4.56275        0.44121
C         -1.83742        1.79936        3.71642
H         -2.81246        2.20917        3.92293
C         -0.95475        1.53122        4.74857
H         -1.23773        1.74492        5.76635
C          0.28636        0.98812        4.47670
H          0.97217        0.77683        5.28057
C          0.64421        0.70590        3.17078
H          1.60169        0.26468        2.94306
Pd        -1.33473        1.66092       -0.85790
Cl        -3.04191        2.41490       -2.10109
Cl        -0.01175        1.25490       -2.63030
C         -4.99803        3.03158        0.97431
C         -4.01043        0.66820        0.89837
H         -3.06796        4.30596       -0.61702
H         -3.56071        5.49030        0.58949
H         -1.95181        4.75837        0.66683
H         -5.19126        3.23629       -0.08783
H         -5.71132        3.65843        1.53093
H         -4.04752        0.37455       -0.15937
C         -5.24032        1.52197        1.26147
C         -3.80042       -0.54011        1.78476
H         -3.45713        3.69574        2.36487
H         -5.46348        1.38413        2.32841
H         -6.13004        1.15844        0.72518
H         -2.89655       -1.08353        1.50375
H         -3.69173       -0.24060        2.82878
H         -4.64279       -1.23292        1.72277
C         -1.26127       -3.77876       -0.21097
C         -0.96702       -3.33171        1.10264
C         -0.50666       -2.03643        1.26794
C         -0.39430       -1.18530        0.20059
C         -0.75886       -1.58561       -1.05664
C         -1.24379       -2.85970       -1.29108
O         -1.53927       -5.15130       -0.44762
C         -1.11521       -4.23671        2.33543
H         -0.22763       -1.67153        2.24062
H         -0.65143       -0.87868       -1.86034
C         -1.73129       -3.21871       -2.70326
C          4.62471        0.66942       -0.49594
C          4.08244       -0.46033        0.16845
C          2.72177       -0.47733        0.42538
C          1.93002        0.59867        0.11933
C          2.46727        1.73642       -0.42191
C          3.81948        1.81724       -0.71256
O          5.96082        0.63670       -0.97679
C          4.93275       -1.67259        0.57979
H          2.25385       -1.34583        0.85648
H          1.80582        2.55769       -0.63747
C          4.37990        3.12216       -1.29946
C         -1.40627       -3.39861        3.60157
C         -2.29236       -5.21368        2.16380
C          0.19207       -5.01330        2.55415
C         -2.31365       -1.97103       -3.40813
C         -0.54914       -3.74422       -3.53116
C         -2.85565       -4.26882       -2.65295
C         -0.39229       -5.92621       -0.77351
H         -2.26233       -2.74288        3.44586
H         -1.63164       -4.04528        4.44928
H         -0.55157       -2.78661        3.88606
H         -2.43831       -5.81328        3.06193
H         -3.21558       -4.67046        1.96456
H         -2.12236       -5.89765        1.33590
H          1.02677       -4.32834        2.70210
H          0.12257       -5.65580        3.43154
H          0.42639       -5.63988        1.69705
H         -2.78075       -2.24339       -4.35413
H         -3.07015       -1.49221       -2.78687
H         -1.54240       -1.23623       -3.63359
H         -0.86330       -3.99769       -4.54330
H          0.23665       -2.99226       -3.59983
H         -0.11644       -4.63416       -3.08024
H         -3.68033       -3.91773       -2.03352
H         -3.24405       -4.47525       -3.64993
H         -2.50312       -5.20886       -2.23626
H         -0.50801       -6.35224       -1.76988
H          0.50585       -5.30791       -0.74438
H         -0.29270       -6.74624       -0.06248
C          6.08850        0.12441       -2.29740
C          6.36923       -1.24833        0.93521
C          4.34062       -2.35222        1.83610
C          4.94881       -2.69509       -0.56665
C          4.27727        3.07210       -2.83156
C          3.57426        4.33991       -0.79243
C          5.84180        3.34298       -0.87035
H          6.88442       -0.82997        0.07426
H          6.36276       -0.49250        1.71987
H          6.95319       -2.09824        1.28752
H          5.00879       -3.12937        2.20655
H          4.19441       -1.62730        2.63648
H          3.38416       -2.82833        1.62506
H          5.37785       -2.26854       -1.47005
H          5.53484       -3.57367       -0.29806
H          3.93702       -3.02349       -0.80375
H          4.65358        3.99169       -3.27886
H          4.84933        2.24179       -3.23826
H          3.24096        2.94353       -3.14334
H          3.51620        4.34052        0.29571
H          4.04595        5.27196       -1.10291
H          2.56095        4.34737       -1.19114
H          6.49277        2.56568       -1.26240
H          5.92818        3.33446        0.21567
H          6.21647        4.29979       -1.23311
H          5.11046       -0.14938       -2.69517
H          6.54425        0.87782       -2.93963
H          6.73643       -0.75189       -2.28925
