171
-217.83691279
P         -1.64673        0.39816       -0.36397
P          1.61746       -0.51066        0.04938
C         -0.82354        1.10787       -1.79237
C          0.77072       -1.58989       -1.12599
C          0.02280        0.31852       -2.56145
C          0.72121        0.90934       -3.63100
C          0.50975        2.24967       -3.91239
C         -0.36161        3.00762       -3.15678
C         -1.02129        2.43362       -2.08671
C          0.76124       -2.92486       -0.79684
C          0.14308       -3.84466       -1.62100
C         -0.48527       -3.41430       -2.76894
C         -0.51382       -2.07165       -3.10570
C          0.12779       -1.13527       -2.27204
Cl         1.26410        0.52223        3.09971
Cl        -1.87875       -0.11916        2.91120
C         -1.23240       -1.65257       -4.34076
C          1.64788        0.10725       -4.47494
H         -0.52695        4.04437       -3.40001
H         -1.69631        3.01636       -1.48023
H          1.24298       -3.24928        0.11338
H          0.15603       -4.89234       -1.36915
H          1.03343        2.69849       -4.73947
H         -0.97746       -4.12455       -3.41188
C         -4.27386       -3.19016       -1.18413
C         -4.30054       -2.13310       -2.08666
C         -3.45809       -1.05254       -1.84894
C         -2.64379       -1.03953       -0.74288
C         -2.64873       -2.08110        0.14998
C         -3.45772       -3.18872       -0.05933
H         -4.92695       -4.02472       -1.35659
H         -3.44279       -0.20332       -2.51045
H         -2.04569       -2.01020        1.03916
C         -4.40098        3.34081        1.72394
C         -4.94106        2.37030        0.89027
C         -4.06317        1.50686        0.24856
C         -2.70622        1.62712        0.42132
C         -2.18948        2.60696        1.23322
C         -3.03130        3.47031        1.92288
H         -5.07308        3.99962        2.24072
H         -4.43499        0.71584       -0.37781
H         -1.12333        2.67665        1.36067
C          5.15835       -2.91614        1.57511
C          4.82989       -2.95825        0.22650
C          3.72790       -2.22475       -0.19498
C          2.99792       -1.47704        0.69794
C          3.34815       -1.44246        2.02320
C          4.43397       -2.16719        2.49310
H          6.00380       -3.48245        1.92035
H          3.42221       -2.23920       -1.22724
H          2.76575       -0.83350        2.68833
C          3.71691        3.22403       -1.43097
C          2.60991        3.37297       -0.60325
C          1.93028        2.22661       -0.21041
C          2.35450        0.98619       -0.62160
C          3.45619        0.86000       -1.43259
C          4.16718        1.97770       -1.84928
H          4.25550        4.09909       -1.73919
H          1.07944        2.29987        0.44346
H          3.79123       -0.12304       -1.71364
Pd        -0.18880        0.04684        1.44181
C         -5.14734       -0.91718       -4.15834
C         -5.29455       -2.15906       -3.25734
C         -6.72867       -2.18129       -2.69601
C         -5.05863       -3.41870       -4.11192
H         -4.14555       -0.85105       -4.58050
H         -5.85272       -0.95633       -4.98830
H         -5.34723       -0.00229       -3.60084
H         -7.46308       -2.18760       -3.50124
H         -6.89927       -3.06447       -2.08142
H         -6.91388       -1.30350       -2.07776
H         -5.73883       -3.44391       -4.96312
H         -4.03990       -3.44473       -4.49569
H         -5.21935       -4.32727       -3.53306
C         -3.92544       -3.76530        2.33181
C         -3.45492       -4.32235        0.97513
C         -2.02727       -4.88240        1.11347
C         -4.39246       -5.47313        0.56326
H         -3.95260       -4.54955        3.08797
H         -3.26018       -2.98023        2.68950
H         -4.92584       -3.34139        2.24753
H         -1.99310       -5.68785        1.84675
H         -1.67834       -5.27935        0.16099
H         -1.32695       -4.11135        1.43267
H         -4.36642       -6.27547        1.30053
H         -5.42424       -5.13081        0.48607
H         -4.09483       -5.89610       -0.39612
C         -7.03106        3.57409        0.19777
C         -6.46340        2.24734        0.73426
C         -7.08770        1.92920        2.10511
C         -6.84394        1.12134       -0.24805
H         -8.10966        3.50773        0.05603
H         -6.83599        4.39612        0.88539
H         -6.57927        3.82551       -0.76165
H         -6.88916        2.72300        2.82425
H         -8.16845        1.81381        2.02478
H         -6.67766        1.00320        2.50789
H         -6.42127        1.30364       -1.23597
H         -6.48890        0.15414        0.10756
H         -7.92603        1.05357       -0.35922
C         -1.52145        3.75656        3.90617
C         -2.43291        4.49082        2.90222
C         -3.52694        5.23165        3.69514
C         -1.61138        5.52499        2.11675
H         -1.11095        4.44935        4.64032
H         -2.07943        2.98791        4.44030
H         -0.68463        3.27073        3.40648
H         -4.17121        5.80889        3.03232
H         -4.14482        4.53121        4.25678
H         -3.08358        5.92686        4.40797
H         -2.23378        6.03930        1.38470
H         -1.18102        6.27263        2.78282
H         -0.79552        5.04301        1.58353
C          5.58068       -5.28093       -0.33674
C          5.66985       -3.79940       -0.74468
C          7.13613       -3.33132       -0.69022
C          5.16961       -3.65930       -2.19638
H          6.15584       -5.90865       -1.01716
H          5.96725       -5.43746        0.66972
H          4.54592       -5.62282       -0.35445
H          7.55870       -3.46320        0.30505
H          7.75181       -3.89606       -1.39010
H          7.21335       -2.27564       -0.94919
H          5.78337       -4.25076       -2.87561
H          4.14183       -4.00876       -2.29359
H          5.21542       -2.62228       -2.52878
C          6.27733       -1.58657        4.08955
C          4.85032       -2.15199        3.97090
C          4.81094       -3.58776        4.52583
C          3.90597       -1.27665        4.81874
H          6.32574       -0.57715        3.68145
H          6.59555       -1.54561        5.13112
H          6.99340       -2.20171        3.54584
H          5.08135       -3.60545        5.58147
H          3.81155       -4.01093        4.42617
H          5.50428       -4.23803        3.99380
H          4.20886       -1.28153        5.86561
H          3.91731       -0.24175        4.47762
H          2.88104       -1.64375        4.77006
C          0.77727        5.07665       -0.67221
C          2.15437        4.74247       -0.07818
C          3.13824        5.86296       -0.46801
C          2.06721        4.69426        1.46011
H          0.41238        6.03519       -0.30383
H          0.83489        5.13524       -1.75837
H          0.04556        4.31225       -0.41643
H          2.81481        6.81994       -0.05857
H          4.13699        5.65872       -0.08247
H          3.19985        5.97446       -1.55033
H          1.76533        5.65997        1.86502
H          1.34599        3.95179        1.79773
H          3.03425        4.43580        1.89085
C          6.44367        0.93414       -1.83801
C          5.45895        1.78865       -2.65956
C          6.13339        3.13572       -2.98292
C          5.14051        1.07470       -3.98419
H          7.38287        0.79615       -2.37334
H          6.66498        1.41227       -0.88404
H          6.03199       -0.05228       -1.62833
H          6.40417        3.66810       -2.07132
H          7.04659        2.98228       -3.55787
H          5.47495        3.77213       -3.57390
H          4.45786        1.67330       -4.58617
H          6.04709        0.91293       -4.56715
H          4.68003        0.10304       -3.80968
H         -0.64877       -1.89012       -5.23115
H          2.13224       -0.67710       -3.89112
H         -1.43758       -0.58138       -4.34369
H         -2.18754       -2.17017       -4.42428
H          2.42878        0.73462       -4.90457
H          1.11513       -0.36512       -5.30070
