105
-153.06307434
Cl         3.18330        1.07661       -1.27474
Pd         0.94840        0.79435       -1.16825
P         -1.39688        0.72648       -1.10095
N         -1.48272       -0.80873       -1.96331
C         -0.52831       -1.78292       -1.63522
C         -0.35628       -2.26118       -0.30717
C          0.66334       -3.19329       -0.02734
C          0.80056       -3.73700        1.37452
C          2.12031       -4.47782        1.63808
C          2.43172       -5.45790        0.50448
C          2.53286       -4.72707       -0.84325
C          1.47590       -3.67053       -1.05900
C          1.29169       -3.19007       -2.34974
C          0.31603       -2.27175       -2.63603
H          0.20103       -1.89954       -3.63889
H          1.93098       -3.55431       -3.13613
H          3.51927       -4.26048       -0.93730
H          3.35504       -6.01559        0.71642
H          2.93578       -3.74904        1.72281
H          0.69877       -2.91201        2.08756
C         -1.39240       -1.97158        0.71468
C         -1.05879       -1.32843        1.93201
C         -1.98974       -1.32066        2.96969
C         -3.23888       -1.85726        2.80126
C         -3.61221       -2.44079        1.59744
C         -5.01396       -2.98328        1.47565
C         -5.43133       -3.29552        0.03116
C         -4.31605       -4.04847       -0.69951
C         -3.02505       -3.21594       -0.73944
C         -2.68251       -2.52000        0.55690
H         -2.17949       -3.85119       -1.03203
H         -4.63412       -4.32588       -1.71443
H         -5.64306       -2.35765       -0.49777
H         -5.71151       -2.26534        1.92601
H         -3.95382       -1.81782        3.60565
H         -1.72317       -0.85123        3.90060
N          0.17902       -0.72875        2.15507
P          1.24371        0.19348        1.09600
C          2.82463       -0.65599        1.17026
C          3.32439       -1.36849        0.10753
C          4.55149       -1.99644        0.21415
C          5.27711       -1.93492        1.39520
C          4.74531       -1.23194        2.46740
C          3.52554       -0.58892        2.35129
H          3.11574       -0.03151        3.17932
H          5.29357       -1.18701        3.39282
C          6.57938       -2.64585        1.51947
H          4.95981       -2.53213       -0.62541
H          2.75676       -1.41957       -0.80780
C          1.50243        1.81035        1.85183
C          0.84061        2.13858        3.01261
C          1.02205        3.38320        3.58705
C          1.87039        4.31331        3.00282
C          2.54432        3.96105        1.84207
C          2.35695        2.71687        1.27168
H          2.87740        2.44502        0.36946
H          3.21705        4.66801        1.38730
C          2.08600        5.64594        3.63143
H          0.50312        3.64028        4.49474
H          0.16963        1.42727        3.46347
H          0.48562       -0.59078        3.11005
H         -1.47988       -0.53576       -2.93760
C         -1.66711        2.13225       -2.18548
C         -1.08784        3.33948       -1.87264
C         -1.29162        4.43171       -2.69627
C         -2.07691        4.32036       -3.83582
C         -2.67025        3.09785       -4.12110
C         -2.46460        2.00589       -3.29732
H         -2.93034        1.05833       -3.51437
H         -3.29452        3.00623       -4.99347
C         -2.31352        5.50092       -4.71205
H         -0.83911        5.37912       -2.45811
H         -0.47693        3.42294       -0.98707
C         -2.49161        0.94963        0.28740
C         -2.01904        1.61798        1.38928
C         -2.86580        1.86374        2.45465
C         -4.19297        1.45666        2.40847
C         -4.65229        0.79557        1.27640
C         -3.80318        0.54909        0.21243
H         -4.15281        0.04316       -0.67349
H         -5.67741        0.46933        1.23576
C         -5.09541        1.68042        3.57111
H         -2.49754        2.36845        3.33128
H         -0.98807        1.92884        1.41398
Cl         0.79115        1.08960       -3.39353
H          2.47696       -5.45017       -1.66716
H          2.09045       -4.99784        2.60604
H          1.63756       -6.21333        0.45126
H         -0.04673       -4.40385        1.57326
H         -4.12131       -4.99690       -0.18325
H         -3.10607       -2.45600       -1.52517
H         -5.09128       -3.89025        2.08708
H         -6.37010       -3.86693        0.00752
H          7.21136       -2.18267        2.27844
H          6.42558       -3.68889        1.79970
H          7.12772       -2.62766        0.57658
H          2.92194        5.61319        4.33147
H          2.30622        6.40477        2.87926
H          1.20042        5.97099        4.17933
H         -2.46859        5.19698       -5.74820
H         -3.19594        6.05394       -4.38733
H         -1.46221        6.18275       -4.69196
H         -5.07697        0.82292        4.24525
H         -4.79523        2.56186        4.13948
H         -6.12582        1.83115        3.24607
