105
-153.06446929
Cl         0.02611        1.92999        3.09880
Pd        -0.46722        1.35664        0.97652
P         -1.06630        0.51089       -1.14127
N         -0.63388       -0.97862       -1.97722
C          0.24513       -1.99934       -1.62095
C          0.35323       -2.48558       -0.29378
C          1.28039       -3.51126       -0.00905
C          1.36078       -4.05649        1.39780
C          2.58471       -4.94451        1.67489
C          2.83202       -5.91936        0.52086
C          3.06476       -5.15368       -0.78937
C          2.05827       -4.05784       -1.03423
C          1.90169       -3.59122       -2.33313
C          1.01169       -2.59126       -2.62354
H          0.91329       -2.22957       -3.63224
H          2.50260       -4.01937       -3.11757
H          4.06794       -4.71117       -0.78566
H          3.67918       -6.58343        0.74415
H          3.47041       -4.31056        1.80834
H          1.35616       -3.21681        2.10149
C         -0.65916       -2.11314        0.72476
C         -0.25879       -1.49994        1.94258
C         -1.20540       -1.36248        2.96211
C         -2.49612       -1.79020        2.79043
C         -2.91021       -2.37783        1.60126
C         -4.33811       -2.85851        1.50492
C         -4.78335       -3.22918        0.08131
C         -3.69279       -4.02676       -0.63826
C         -2.39270       -3.21396       -0.72784
C         -1.99140       -2.53940        0.56213
H         -1.57115       -3.85945       -1.06279
H         -4.03092       -4.33587       -1.63748
H         -4.99523       -2.31531       -0.48703
H         -4.99965       -2.08905        1.92221
H         -3.21004       -1.67194        3.58796
H         -0.91082       -0.88876        3.88206
N          1.03293       -0.98784        2.13590
P          1.60074        0.22542        0.99157
C          2.60819       -0.33889       -0.36710
C          2.43249        0.24692       -1.59583
C          3.24708       -0.11999       -2.65124
C          4.24495       -1.06951       -2.47368
C          4.42734       -1.62219       -1.21241
C          3.60941       -1.25572       -0.15863
H          3.74371       -1.67924        0.82405
H          5.21217       -2.34335       -1.06137
C          5.12617       -1.46357       -3.60693
H          3.10914        0.32749       -3.62055
H          1.65299        0.97900       -1.72242
C          2.54599        1.52683        1.79095
C          3.26414        1.25828        2.93118
C          3.99473        2.26616        3.53423
C          4.01792        3.54411        2.99165
C          3.28685        3.79334        1.83787
C          2.55766        2.78447        1.23510
H          1.99257        2.97377        0.33554
H          3.28876        4.78386        1.41603
C          4.77794        4.63743        3.65837
H          4.55025        2.06588        4.43446
H          3.25494        0.26265        3.34429
H          1.17240       -0.54320        3.03397
H         -0.90417       -0.88686       -2.94853
C         -0.61711        1.90220       -2.19462
C         -0.92793        3.18337       -1.80630
C         -0.57423        4.25580       -2.60218
C          0.08898        4.05333       -3.80430
C          0.39702        2.75419       -4.18362
C          0.03864        1.68443       -3.38417
H          0.28550        0.67896       -3.68053
H          0.92259        2.58564       -5.10807
C          0.49820        5.20931       -4.64920
H         -0.81057        5.25944       -2.29232
H         -1.45042        3.33847       -0.87736
C         -2.86298        0.49921       -1.08359
C         -3.54122        0.71295       -2.26029
C         -4.92489        0.70619       -2.27032
C         -5.63826        0.48449       -1.10046
C         -4.93573        0.28050        0.07855
C         -3.55349        0.27246        0.08165
H         -3.00682        0.10458        0.99533
H         -5.47876        0.13162        0.99601
C         -7.12697        0.50490       -1.10029
H         -5.45917        0.87956       -3.18876
H         -2.98480        0.88945       -3.16767
Cl        -2.31249        2.64432        1.03057
H          3.05299       -5.84578       -1.64115
H          2.46661       -5.48716        2.62347
H          1.96165       -6.57815        0.40859
H          0.44141       -4.61715        1.60421
H         -3.50246       -4.95805       -0.09018
H         -2.49566       -2.44360       -1.50084
H         -4.45406       -3.72809        2.16289
H         -5.72898       -3.78927        0.09960
H          5.45928       -2.49739       -3.50442
H          4.60250       -1.37859       -4.56020
H          6.01071       -0.82670       -3.64996
H          5.13237        5.37035        2.93224
H          4.15053        5.15782        4.38323
H          5.64912        4.24675        4.18608
H          0.53849        4.93215       -5.70355
H         -0.20605        6.03674       -4.55163
H          1.48527        5.57122       -4.35819
H         -7.52572        0.19852       -2.06838
H         -7.52909       -0.17425       -0.34710
H         -7.49998        1.50684       -0.88395
