87
-129.18188696
P         -1.47319       -0.40730       -0.26438
P          1.68073        0.42750        0.24510
C         -1.19347        0.85274       -1.51593
C          1.61501       -0.65821       -1.20357
C         -0.12043        0.71551       -2.38707
C          0.08647        1.70243       -3.37187
C         -0.79768        2.76544       -3.45600
C         -1.86038        2.87926       -2.58441
C         -2.05486        1.91788       -1.61247
C          2.40227       -1.78246       -1.11511
C          2.36459       -2.74778       -2.10184
C          1.51638       -2.58977       -3.17511
C          0.70480       -1.47422       -3.28384
C          0.76170       -0.47676       -2.29078
Cl         1.10903       -0.09970        3.45349
Cl        -1.41880       -1.91314        2.59115
H         -2.53559        3.71579       -2.65969
H         -2.88804        1.99335       -0.93388
H          3.04618       -1.91193       -0.26039
H          2.98524       -3.62545       -2.02486
H         -0.64282        3.51313       -4.21522
H          1.47018       -3.34571       -3.94071
C         -2.20341       -4.39179       -2.31878
C         -2.79435       -3.24077       -2.82165
C         -2.57039       -2.03784       -2.16123
C         -1.76757       -1.99463       -1.04521
C         -1.18869       -3.13987       -0.55177
C         -1.40527       -4.34465       -1.19274
H         -2.37754       -5.33014       -2.81725
C         -3.67299       -3.29574       -4.02150
H         -3.01729       -1.12850       -2.52874
H         -0.58250       -3.08932        0.33781
H         -0.95450       -5.24596       -0.81094
C         -5.07382        0.78307        2.26129
C         -5.10728       -0.38955        1.53238
C         -4.01959       -0.75369        0.76138
C         -2.91075        0.05809        0.72170
C         -2.87444        1.22501        1.44901
C         -3.95428        1.60323        2.23639
H         -5.92112        1.07019        2.86037
H         -5.97887       -1.02246        1.56676
H         -4.02741       -1.67054        0.19492
H         -2.00236        1.85410        1.40103
C         -3.91605        2.87836        3.00273
C          5.76812        0.11215        2.22573
C          5.47942        1.17741        1.39588
C          4.23486        1.27067        0.80132
C          3.28839        0.30217        1.04327
C          3.57607       -0.76199        1.86646
C          4.82347       -0.87556        2.46790
H          6.73337        0.04208        2.69763
H          6.22151        1.93748        1.21410
H          3.99436        2.09833        0.15389
H          2.82041       -1.50459        2.06252
C          5.11340       -2.00750        3.38952
C          0.51046        4.79486       -0.21829
C          0.05609        4.06364        0.86137
C          0.43064        2.74121        1.00062
C          1.23079        2.15481        0.04698
C          1.70750        2.88742       -1.01437
C          1.35507        4.22449       -1.16071
H          0.21936        5.82510       -0.33315
H         -0.57988        4.52487        1.59916
H          0.14026        2.17310        1.86987
H          2.34712        2.41418       -1.74033
C          1.84252        5.02146       -2.31918
Pd         0.00037       -0.51892        1.55189
C          1.23150        1.62764       -4.32105
C         -0.21616       -1.36621       -4.45004
H          1.97538        0.90047       -3.99354
H          0.89277        1.33944       -5.31690
H          1.73128        2.59356       -4.40531
H         -0.72201       -2.31520       -4.63315
H         -0.98623       -0.61208       -4.28529
H          0.33114       -1.09931       -5.35482
H         -3.67846       -2.34107       -4.54969
H         -3.33388       -4.05986       -4.72249
H         -4.70030       -3.52944       -3.73861
H         -4.21935        3.71716        2.37462
H         -4.58463        2.84201        3.86392
H         -2.91007        3.08151        3.37313
H          6.18582       -2.19263        3.46480
H          4.73611       -1.79548        4.39086
H          4.64142       -2.92710        3.04047
H          2.16894        6.01273       -2.00137
H          2.68836        4.53488       -2.80687
H          1.05366        5.14903       -3.06157
