111
-148.55203899
P         -1.82851        2.72524        0.30352
P         -0.37458       -0.06582        0.57818
C         -1.52206        2.02959        1.95025
C         -0.96323        0.77385        2.06247
C         -1.00557        4.36103        0.07326
C         -0.22207        4.36184       -1.22228
C         -1.82634        2.75080        3.08702
H         -2.22237        3.74855        2.99405
C         -1.59651        2.19911        4.33547
H         -1.83811        2.76024        5.22340
C         -1.05308        0.93349        4.44496
H         -0.86979        0.50595        5.41697
C         -0.72470        0.22307        3.30429
H         -0.26784       -0.75124        3.37313
Pd        -1.25721        1.09227       -1.21829
Cl        -2.54190        2.02648       -2.80036
Cl        -0.50291       -0.53703       -2.57064
C         -2.19292        5.34537        0.08193
C         -3.59747        3.19744        0.00265
H         -0.88454        4.16997       -2.06903
H          0.26724        5.32334       -1.39620
H          0.54467        3.58299       -1.22626
H         -1.94381        6.22725       -0.52650
H         -2.35705        5.72440        1.10148
H         -3.94083        2.56610       -0.82831
C         -3.49710        4.67412       -0.43449
C         -4.47457        2.97114        1.21566
H         -0.34374        4.51957        0.93526
H         -4.38173        5.22276       -0.08006
H         -3.52891        4.74075       -1.53192
H         -4.40258        1.94068        1.57107
H         -4.18077        3.62690        2.03578
H         -5.52392        3.17964        0.99441
C         -0.98728       -4.57524        0.43471
C          0.02767       -4.03448        1.26538
C          0.20006       -2.65965        1.28227
C         -0.64094       -1.83481        0.58120
C         -1.69271       -2.34667       -0.13230
C         -1.91369       -3.71191       -0.20309
O         -1.05261       -5.97690        0.21394
C          0.95096       -4.91807        2.11949
H          1.01045       -2.21273        1.83198
H         -2.32855       -1.65908       -0.66323
C         -3.11398       -4.22978       -1.01059
C          3.91856        1.21347       -0.22775
C          3.48521       -0.06898       -0.65229
C          2.17371       -0.43509       -0.40005
C          1.33698        0.38541        0.30835
C          1.77691        1.58678        0.80167
C          3.07874        2.00994        0.59285
O          5.17417        1.72095       -0.65563
C          4.39468       -1.04801       -1.41060
H          1.77715       -1.36186       -0.77662
H          1.08134        2.19725        1.35012
C          3.56236        3.31402        1.24778
C          1.42373       -4.15620        3.37842
C          0.21300       -6.17764        2.60885
C          2.18569       -5.31463        1.29665
C         -4.27737       -3.21240       -0.97371
C         -2.68826       -4.43078       -2.47314
C         -3.65322       -5.54741       -0.42529
C         -0.27981       -6.42655       -0.89211
H          2.09130       -3.33394        3.12509
H          0.57437       -3.75276        3.92917
H          1.97240       -4.81840        4.04783
H          0.84571       -6.77140        3.26810
H         -0.68792       -5.90549        3.15772
H         -0.08236       -6.81272        1.77736
H          2.86250       -5.93595        1.88262
H          1.90567       -5.87116        0.40582
H          2.73336       -4.42970        0.97572
H         -4.03493       -2.30206       -1.51994
H         -5.17192       -3.63128       -1.43402
H         -4.52421       -2.94259        0.05276
H         -2.33397       -3.49368       -2.90220
H         -1.88174       -5.15545       -2.55344
H         -3.52223       -4.78572       -3.07795
H         -3.91705       -5.42112        0.62419
H         -4.54212       -5.87938       -0.96113
H         -2.91508       -6.34270       -0.48958
H         -0.93212       -6.89439       -1.62919
H          0.24822       -5.59043       -1.35245
H          0.44050       -7.17189       -0.55525
C          5.11750        2.43960       -1.88144
C          4.02164       -2.50816       -1.06768
C          4.21659       -0.83366       -2.92121
C          5.87153       -0.86339       -1.01687
C          3.32911        4.49313        0.29218
C          2.78921        3.58477        2.55874
C          5.05465        3.22110        1.61490
H          3.03756       -2.77652       -1.44874
H          4.73547       -3.20409       -1.50778
H          4.02655       -2.66115        0.01097
H          4.84321       -1.51990       -3.49020
H          3.18012       -1.00044       -3.21374
H          4.48085        0.18158       -3.20830
H          5.99691       -0.96670        0.06044
H          6.50285       -1.60568       -1.50469
H          6.23983        0.11860       -1.30195
H          2.26921        4.60497        0.07051
H          3.67930        5.42660        0.73204
H          3.85271        4.34871       -0.64953
H          3.21454        4.43592        3.08994
H          1.74242        3.81734        2.36914
H          2.83372        2.72048        3.22088
H          5.67389        3.11002        0.72796
H          5.23839        2.36316        2.26077
H          5.38625        4.11741        2.13848
H          4.08589        2.52288       -2.22599
H          5.53608        3.43580       -1.73853
H          5.71093        1.92588       -2.63738
