111
-148.55415768
P         -2.59505        1.99031        0.81180
P          0.14374        0.45401        0.45346
C         -1.50307        1.75772        2.24142
C         -0.28362        1.13964        2.06685
C         -3.49554        3.60558        0.89238
C         -2.87322        4.64423       -0.01493
C         -1.88098        2.18985        3.49675
H         -2.84376        2.65370        3.63419
C         -1.02910        2.00955        4.57288
H         -1.32347        2.34711        5.55321
C          0.19545        1.39527        4.39340
H          0.85702        1.25218        5.23187
C          0.56697        0.95317        3.13656
H          1.51008        0.45245        2.98253
Pd        -1.30022        1.50137       -1.03556
Cl        -2.90566        2.36122       -2.33710
Cl         0.07539        0.74219       -2.64698
C         -4.93639        3.20421        0.52746
C         -4.02553        0.81751        0.74197
H         -2.89562        4.31642       -1.05468
H         -3.40834        5.59500        0.04087
H         -1.82863        4.82618        0.24853
H         -5.06546        3.30490       -0.55911
H         -5.65646        3.90450        0.97771
H         -4.02959        0.40461       -0.27581
C         -5.24269        1.73890        0.95157
C         -3.88590       -0.28496        1.76892
H         -3.44926        3.93561        1.93780
H         -5.52317        1.71737        2.01361
H         -6.11644        1.34805        0.40841
H         -2.98739       -0.87877        1.59054
H         -3.80968        0.13072        2.77541
H         -4.74494       -0.95965        1.75100
C         -1.22157       -3.89337        0.27903
C         -1.03915       -3.26394        1.53718
C         -0.60143       -1.95026        1.55702
C         -0.42072       -1.24778        0.39465
C         -0.69854       -1.82080       -0.81740
C         -1.13846       -3.12828       -0.91178
O         -1.44862       -5.29374        0.21184
C         -1.28259       -3.99347        2.86750
H         -0.39186       -1.45505        2.48844
H         -0.55244       -1.22530       -1.70060
C         -1.49161       -3.69322       -2.29609
C          4.54924        0.75196       -0.66144
C          3.81669       -0.42576       -0.95599
C          2.47916       -0.46810       -0.60310
C          1.88780        0.56745        0.07120
C          2.61480        1.66750        0.44424
C          3.96118        1.77068        0.13243
O          5.85410        0.92843       -1.19362
C          4.42785       -1.63094       -1.68730
H          1.86999       -1.31367       -0.86993
H          2.11015        2.45270        0.98020
C          4.75335        2.98915        0.63243
C         -1.70009       -2.99595        3.97235
C         -2.42389       -5.01792        2.73379
C          0.01108       -4.69590        3.30608
C         -2.04442       -2.57642       -3.21205
C         -0.22676       -4.27772       -2.94309
C         -2.58588       -4.77105       -2.19497
C         -0.26039       -6.06614        0.09350
H         -0.88592       -2.32363        4.23880
H         -2.55105       -2.39548        3.65259
H         -1.98785       -3.52434        4.88096
H         -2.64105       -5.49014        3.69156
H         -3.33377       -4.53435        2.37972
H         -2.16873       -5.80568        2.02916
H         -0.12763       -5.21249        4.25548
H          0.33097       -5.42844        2.56903
H          0.81854       -3.97437        3.42871
H         -2.42038       -2.99264       -4.14626
H         -2.86450       -2.04760       -2.72699
H         -1.27660       -1.84985       -3.47320
H          0.53699       -3.50889       -3.05796
H          0.19507       -5.07481       -2.33527
H         -0.44555       -4.68535       -3.92965
H         -2.88097       -5.12399       -3.18280
H         -2.24409       -5.63241       -1.62685
H         -3.47046       -4.37359       -1.69841
H          0.61775       -5.41929        0.11167
H         -0.20493       -6.77797        0.91700
H         -0.27860       -6.62712       -0.84065
C          5.87690        1.56332       -2.46598
C          5.92509       -1.77944       -1.36287
C          3.73912       -2.94343       -1.24562
C          4.22582       -1.45737       -3.20035
C          6.22830        2.62740        0.88587
C          4.65630        4.11942       -0.40325
C          4.17944        3.49789        1.97463
H          6.34153       -2.66983       -1.83328
H          6.49497       -0.92401       -1.71654
H          6.07815       -1.86073       -0.28727
H          4.25337       -3.80931       -1.66200
H          3.74710       -3.03933       -0.16019
H          2.70600       -2.99289       -1.58605
H          4.63511       -2.30495       -3.74940
H          3.16554       -1.37904       -3.44005
H          4.71298       -0.55488       -3.56181
H          6.30466        1.79649        1.58638
H          6.72912        2.33512       -0.03367
H          6.77346        3.47391        1.30266
H          5.19656        5.00420       -0.06750
H          5.07334        3.81428       -1.35995
H          3.61686        4.40111       -0.56979
H          4.11661        2.68798        2.70102
H          3.18611        3.92695        1.85249
H          4.81419        4.27696        2.39628
H          6.33398        0.89898       -3.19910
H          4.86381        1.81317       -2.78386
H          6.47556        2.47237       -2.41020
