45
-71.81532030
C          2.24199        1.47587        2.34728
P          1.50160        0.95949        0.76283
P         -1.01143        0.06372       -0.92725
C         -0.34621       -0.57471       -2.50250
Cl         1.48307       -1.77083        2.41445
H          1.46168        1.79118        3.03405
H          0.71791       -0.36573       -2.56488
Cl        -1.37719       -2.55891        0.74220
C          0.43873        2.21739        0.02603
C         -0.64172        1.81915       -0.73064
C         -1.44610        2.75810       -1.34276
C         -1.16220        4.10463       -1.19692
C         -0.07488        4.50396       -0.44387
C          0.73040        3.55856        0.16679
H         -2.29046        2.43081       -1.92810
H         -1.78884        4.84092       -1.67269
H          0.14893        5.55232       -0.33400
H          1.58852        3.85826        0.74610
Pd         0.16010       -0.92635        0.81454
H         -0.84851       -0.09687       -3.33873
H          2.93093        2.30020        2.18704
H         -0.49635       -1.64895       -2.56134
C         -5.46279       -0.65902       -0.32664
C         -4.74709        0.10297        0.57537
C         -3.39524        0.31884        0.37413
C         -2.77151       -0.22461       -0.72580
C         -3.47977       -0.98825       -1.62546
C         -4.83133       -1.20550       -1.42647
H         -6.51523       -0.83072       -0.16999
H         -5.23801        0.52579        1.43644
H         -2.82002        0.90728        1.07207
H         -2.97522       -1.41733       -2.47570
H         -5.38924       -1.80463       -2.12727
C          4.56649       -0.47485       -2.26952
C          4.35543       -1.19109       -1.10747
C          3.42983       -0.74299       -0.18334
C          2.73037        0.41680       -0.42368
C          2.92878        1.12931       -1.58367
C          3.85329        0.68341       -2.51087
H          5.28667       -0.82293       -2.99188
H          4.90444       -2.09988       -0.92338
H          3.22263       -1.30282        0.71484
H          2.35806        2.02666       -1.76034
H          4.01490        1.23853       -3.42026
H          2.78426        0.64405        2.78774
