111
-148.55597448
P         -2.53637        2.07239        0.80566
P          0.14244        0.42693        0.48891
C         -1.45424        1.83722        2.24085
C         -0.26595        1.15652        2.08684
C         -3.35645        3.73141        0.82027
C         -2.73095        4.66762       -0.19053
C         -1.81335        2.32233        3.48211
H         -2.75319        2.83558        3.60270
C         -0.97251        2.13202        4.56521
H         -1.25161        2.51106        5.53477
C          0.22139        1.45474        4.40634
H          0.87453        1.30466        5.25018
C          0.57356        0.96041        3.16336
H          1.49366        0.41428        3.02498
Pd        -1.28794        1.44400       -1.02433
Cl        -2.85982        2.21815       -2.42092
Cl         0.07264        0.74535       -2.67598
C         -4.83237        3.38421        0.54989
C         -4.02161        0.96850        0.80501
H         -3.21669        5.64616       -0.18258
H         -1.66694        4.81450        0.00977
H         -2.82095        4.26460       -1.20011
H         -5.01759        3.45196       -0.53105
H         -5.49402        4.13340        1.01078
H         -4.08390        0.54399       -0.20608
C         -5.18278        1.95160        1.04486
C         -3.89665       -0.12738        1.84107
H         -3.23883        4.12893        1.83626
H         -5.40537        1.98016        2.12040
H         -6.10151        1.58352        0.56334
H         -3.03288       -0.76413        1.63944
H         -3.76619        0.29568        2.83884
H         -4.78595       -0.76154        1.86188
C         -1.26391       -3.90452        0.31952
C         -1.10984       -3.26827        1.57829
C         -0.65950       -1.95881        1.60201
C         -0.43839       -1.26795        0.43985
C         -0.68958       -1.84536       -0.77622
C         -1.14101       -3.14875       -0.87396
O         -1.50288       -5.30308        0.25610
C         -1.39630       -3.98789        2.90549
H         -0.47037       -1.45843        2.53510
H         -0.51682       -1.25465       -1.65859
C         -1.46463       -3.71797       -2.26376
C          4.52852        0.72829       -0.69743
C          3.80050       -0.45952       -0.96117
C          2.46905       -0.50621       -0.58627
C          1.88075        0.53569        0.08108
C          2.60571        1.64621        0.42598
C          3.94608        1.75442        0.09091
O          5.82205        0.90756       -1.25568
C          4.40921       -1.67097       -1.68416
H          1.86249       -1.36026       -0.83050
H          2.10366        2.43618        0.95747
C          4.73691        2.98636        0.55877
C         -2.54692       -4.99841        2.74748
C         -0.12356       -4.70492        3.38021
C         -1.82870       -2.97978        3.99472
C         -2.56797       -4.78834       -2.18447
C         -1.98812       -2.60174       -3.19754
C         -0.18842       -4.31336       -2.87770
C         -0.31973       -6.08759        0.17149
H         -2.28418       -5.79259        2.05289
H         -2.79402       -5.46345        3.70150
H         -3.44139       -4.50504        2.36855
H          0.69082       -3.99383        3.51716
H         -0.29236       -5.21241        4.32965
H          0.20343       -5.44754        2.65649
H         -2.14552       -3.49996        4.89839
H         -1.01301       -2.31626        4.27806
H         -2.66396       -2.37065        3.65086
H         -2.24575       -5.64929       -1.60448
H         -3.46172       -4.38298       -1.71127
H         -2.84135       -5.14382       -3.17762
H         -2.81666       -2.06607       -2.73492
H         -1.20998       -1.88061       -3.44268
H         -2.34349       -3.01961       -4.13904
H         -0.38723       -4.72878       -3.86523
H          0.58080       -3.54863       -2.98273
H          0.21676       -5.10657       -2.25364
H          0.56415       -5.45037        0.22211
H         -0.29900       -6.80451        0.99221
H         -0.31316       -6.64311       -0.76604
C          5.81602        1.52217       -2.53817
C          3.74226       -2.98218       -1.20712
C          4.17616       -1.52454       -3.19563
C          5.91391       -1.80026       -1.38689
C          6.21874        2.63965        0.79234
C          4.61339        4.09985       -0.49214
C          4.18175        3.51110        1.90267
H          3.77428       -3.06046       -0.12073
H          2.70267       -3.04639       -1.52436
H          4.25562       -3.84999       -1.62059
H          4.58292       -2.37723       -3.73858
H          3.11073       -1.46010       -3.41588
H          4.64747       -0.62363       -3.58130
H          6.32950       -2.69457       -1.85056
H          6.46872       -0.94581       -1.76589
H          6.08878       -1.86206       -0.31332
H          6.31347        1.81995        1.50373
H          6.70610        2.33738       -0.13121
H          6.76426        3.49641        1.18711
H          3.56910        4.37112       -0.64506
H          5.15244        4.99370       -0.17924
H          5.01637        3.78319       -1.45111
H          4.81718        4.30154        2.30148
H          4.13785        2.71195        2.64225
H          3.18300        3.93034        1.79101
H          4.79519        1.75920       -2.84075
H          6.40844        2.43651       -2.50807
H          6.26441        0.84971       -3.26924
