45
-71.81531643
C          0.38751        0.44005        2.53396
P          0.97668        0.55240        0.81071
P         -1.61172        0.38487       -1.02248
C         -2.40282        0.19763       -2.65495
Cl         1.63395       -2.50175        0.33852
H         -0.69500        0.52600        2.55954
H         -1.67184        0.36514       -3.44077
Cl        -1.14436       -2.64045       -1.63700
C          0.34353        2.03666        0.00203
C         -0.76439        1.96620       -0.81511
C         -1.25185        3.10593       -1.42095
C         -0.61647        4.31825       -1.21675
C          0.49759        4.38723       -0.40278
C          0.97820        3.24364        0.21050
H         -2.12948        3.04329       -2.04358
H         -0.99372        5.20940       -1.69084
H          0.99201        5.33132       -0.24332
H          1.84581        3.28182        0.84976
Pd         0.02203       -1.14885       -0.43101
H         -3.21303        0.91308       -2.76239
H          0.81900        1.24164        3.12657
H         -2.80439       -0.80664       -2.75544
C         -4.45876       -0.32253        2.44746
C         -4.12602       -1.36351        1.60270
C         -3.26903       -1.13912        0.54119
C         -2.75887        0.12051        0.32914
C         -3.07847        1.15921        1.17277
C         -3.93495        0.93819        2.23616
H         -5.12571       -0.49538        3.27628
H         -4.52661       -2.34924        1.77309
H         -2.96806       -1.94252       -0.11217
H         -2.65450        2.13498        0.99871
H         -4.19108        1.74839        2.89892
C          5.49423        0.28784        0.34097
C          4.70336        0.70204       -0.71234
C          3.33145        0.78425       -0.55237
C          2.76230        0.45780        0.65771
C          3.54605        0.03880        1.70854
C          4.91779       -0.04522        1.55083
H          6.56279        0.22049        0.21741
H          5.15196        0.95783       -1.65815
H          2.69874        1.10069       -1.36697
H          3.08470       -0.22959        2.64492
H          5.53471       -0.37516        2.37051
H          0.67273       -0.51593        2.96369
