171
-217.84657110
P         -1.63607        0.45552       -0.26691
P          1.62362       -0.35944       -0.37324
C         -0.91723        1.44503       -1.58403
C          0.84272       -1.27294       -1.70549
C         -0.12824        0.86509       -2.57210
C          0.50204        1.70269       -3.51220
C          0.29325        3.07034       -3.44919
C         -0.51184        3.62332       -2.47602
C         -1.10821        2.80463       -1.53743
C          1.02097       -2.63326       -1.76364
C          0.40589       -3.37121       -2.75598
C         -0.39402       -2.73648       -3.68276
C         -0.58825       -1.36568       -3.63952
C          0.04882       -0.61188       -2.63534
Cl         1.64477        0.43702        2.83628
Cl        -1.45471       -0.34709        2.91976
C         -1.43876       -0.70874       -4.66989
C          1.39522        1.15151       -4.56825
H         -0.66905        4.68897       -2.44137
H         -1.72368        3.22880       -0.76049
H          1.64622       -3.11954       -1.03234
H          0.55291       -4.43760       -2.80718
H          0.77594        3.70502       -4.17320
H         -0.87799       -3.30830       -4.45650
C         -3.78656       -3.32896       -1.49090
C         -2.84077       -3.38924       -0.47467
C         -2.17295       -2.21863       -0.14227
C         -2.44247       -1.04852       -0.80702
C         -3.38411       -1.00239       -1.80563
C         -4.08185       -2.14999       -2.16496
H         -4.32665       -4.21765       -1.75788
H         -1.45603       -2.21104        0.66092
H         -3.57983       -0.05922       -2.28668
C         -4.52394        2.82807        2.29871
C         -5.02170        1.83579        1.46408
C         -4.11448        1.13560        0.67993
C         -2.77420        1.42893        0.72913
C         -2.30007        2.41723        1.55604
C         -3.17100        3.13704        2.36438
H         -5.20888        3.36577        2.92829
H         -4.44559        0.34182        0.03460
H         -1.24080        2.60632        1.58260
C          4.30812       -3.00183        2.15413
C          2.93609       -3.22118        2.18188
C          2.13823       -2.42569        1.36978
C          2.69132       -1.42938        0.60422
C          4.04601       -1.20882        0.61246
C          4.88650       -2.00144        1.38296
H          4.94953       -3.62043        2.75296
H          1.07186       -2.56696        1.34388
H          4.44214       -0.40395        0.02005
C          3.98269        3.23951       -1.75321
C          2.98056        3.41841       -0.80801
C          2.26520        2.29921       -0.40184
C          2.53384        1.06920       -0.94800
C          3.51385        0.91116       -1.89691
C          4.26741        2.00167       -2.31610
H          4.57318        4.08811       -2.04543
H          1.49752        2.37487        0.34855
H          3.68986       -0.07298       -2.29705
Pd         0.04913        0.09185        1.29299
C         -1.06446       -5.06453        0.07679
C         -2.53517       -4.67589        0.30412
C         -3.42603       -5.84720       -0.15177
C         -2.78395       -4.43085        1.80485
H         -0.39501       -4.26124        0.37925
H         -0.80337       -5.95622        0.64630
H         -0.88110       -5.27144       -0.97689
H         -3.20061       -6.74830        0.41853
H         -4.48118       -5.61790       -0.00376
H         -3.26538       -6.07579       -1.20520
H         -2.57660       -5.32855        2.38696
H         -2.15159       -3.63180        2.18876
H         -3.82097       -4.14577        1.98055
C         -5.34816       -0.74937       -3.87322
C         -5.19439       -2.13827       -3.22319
C         -6.52991       -2.50874       -2.55148
C         -4.86960       -3.16403       -4.32517
H         -6.13426       -0.76085       -4.62810
H         -5.61583        0.00335       -3.13194
H         -4.42609       -0.43851       -4.36244
H         -6.76941       -1.80361       -1.75599
H         -7.34690       -2.49428       -3.27266
H         -6.48925       -3.50519       -2.11303
H         -3.90915       -2.94439       -4.78913
H         -4.82170       -4.17576       -3.92447
H         -5.63098       -3.15200       -5.10491
C         -6.95382        1.04639        2.84972
C         -6.52425        1.52169        1.44996
C         -6.86299        0.41419        0.43190
C         -7.30787        2.79054        1.06687
H         -8.01426        0.79559        2.86875
H         -6.39126        0.16043        3.14365
H         -6.77920        1.81689        3.59979
H         -6.35246       -0.51643        0.67934
H         -7.93350        0.20970        0.42390
H         -6.57563        0.70885       -0.57727
H         -8.37850        2.59049        1.02710
H         -7.14562        3.59029        1.78845
H         -6.99576        3.15423        0.08802
C         -1.15738        4.43384        3.22082
C         -2.67623        4.20741        3.34689
C         -2.98358        3.74907        4.78384
C         -3.39106        5.54036        3.05819
H         -0.89715        4.75794        2.21399
H         -0.82105        5.20474        3.91391
H         -0.60302        3.52329        3.44767
H         -4.05439        3.61931        4.93652
H         -2.49821        2.79601        4.99365
H         -2.62728        4.47801        5.51142
H         -3.20630        5.86131        2.03313
H         -4.46835        5.45150        3.19241
H         -3.03689        6.32505        3.72652
C          0.91331       -3.91545        3.53242
C          2.31376       -4.33421        3.03751
C          3.18118       -4.62940        4.27789
C          2.19872       -5.60726        2.18372
H          0.50879       -4.65243        4.22589
H          0.95602       -2.95567        4.04706
H          0.20735       -3.82672        2.70930
H          4.14322       -5.05872        4.00115
H          3.36216       -3.71873        4.84862
H          2.68629       -5.34427        4.93519
H          1.73384       -6.41652        2.74655
H          1.59831       -5.42370        1.29363
H          3.18250       -5.94291        1.85616
C          6.84033       -0.65684        0.46088
C          6.40573       -1.78334        1.41949
C          7.11992       -3.08088        0.99810
C          6.82535       -1.39796        2.84952
H          6.38360        0.29315        0.73796
H          7.92151       -0.52166        0.48680
H          6.56098       -0.88915       -0.56662
H          6.89226       -3.89947        1.67972
H          6.81072       -3.38226       -0.00259
H          8.20138       -2.94573        0.99085
H          7.89852       -1.21673        2.90647
H          6.31155       -0.49149        3.16907
H          6.58146       -2.18766        3.55923
C          3.94544        5.23562        0.61623
C          2.72253        4.80979       -0.21489
C          1.48060        4.81241        0.69722
C          2.48859        5.82142       -1.35277
H          4.84254        5.28381       -0.00021
H          3.79163        6.21780        1.06281
H          4.13028        4.52340        1.42024
H          1.28461        5.81336        1.08136
H          0.59574        4.48674        0.15107
H          1.62076        4.15365        1.55396
H          2.26054        6.80991       -0.95441
H          3.36699        5.91607       -1.98968
H          1.65368        5.50962       -1.97907
C          5.26790        2.87905       -4.45605
C          5.42934        1.86143       -3.31024
C          5.48390        0.44751       -3.92132
C          6.75207        2.12885       -2.56965
H          6.07397        2.77618       -5.18240
H          4.32497        2.72968       -4.97998
H          5.28675        3.90333       -4.08646
H          5.66324       -0.30620       -3.15496
H          4.55244        0.20540       -4.43254
H          6.29124        0.37182       -4.64959
H          6.77246        3.13535       -2.15290
H          6.88297        1.42529       -1.74816
H          7.60412        2.02631       -3.24142
H         -1.86710        0.22215       -4.29573
H          0.92614        1.21867       -5.55084
H         -2.26311       -1.35632       -4.96843
H         -0.85817       -0.47780       -5.56389
H          1.64165        0.10568       -4.38074
H          2.33251        1.70657       -4.60619
