59
-75.79861593
Cl         1.50355        0.68718        2.35244
P          1.56603        0.07434       -0.80357
P         -1.64400       -0.21826       -0.79263
C          0.55570        0.46101       -2.30223
H          0.25872        1.51101       -2.25865
H          1.18826        0.33887       -3.18674
C         -0.64956       -0.43737       -2.33601
H         -0.34096       -1.48459       -2.38990
H         -1.29354       -0.24097       -3.19877
C          2.52379       -1.47961       -1.12340
H          2.33616       -1.69977       -2.18292
C          2.96731        1.25592       -0.55858
H          3.06936        1.39114        0.52504
C         -2.72527       -1.66688       -0.39604
H         -2.64503       -1.81745        0.68769
C         -2.93131        1.10284       -0.97775
H         -2.93942        1.37280       -2.04063
C          3.99277       -1.05413       -0.93689
H          4.33332       -1.34134        0.06493
H          4.64151       -1.60736       -1.63270
C          4.17424        0.47880       -1.11291
H          4.28752        0.71555       -2.17992
H          5.10404        0.82124       -0.63341
C         -4.12935       -1.15702       -0.76122
H         -4.34386       -1.42535       -1.80498
H         -4.89330       -1.67309       -0.15966
C         -4.23698        0.38203       -0.58826
H         -4.46470        0.61190        0.46182
H         -5.08317        0.78364       -1.16617
C          2.05622       -2.65087       -0.25837
H          2.52047       -3.57704       -0.62523
H          0.97798       -2.78678       -0.41674
C          2.71251        2.59949       -1.22994
H          2.58947        2.44016       -2.30921
H          1.74934        2.99758       -0.88331
C         -2.30304       -2.93235       -1.13230
H         -2.36864       -2.75252       -2.21339
H         -1.24100       -3.12740       -0.93322
C         -2.65156        2.33514       -0.12220
H         -3.53558        2.98777       -0.14228
H         -2.55032        2.02139        0.92484
C          2.33414       -2.50270        1.23183
H          3.40028       -2.55851        1.45600
H          1.84647       -3.28615        1.81669
H          1.97836       -1.54585        1.61162
C          3.81720        3.61257       -0.96904
H          3.93954        3.79386        0.10048
H          3.61207        4.57453       -1.44436
H          4.77797        3.25889       -1.34729
C         -3.13441       -4.14770       -0.74946
H         -3.06635       -4.34937        0.32125
H         -2.80988       -5.04867       -1.27513
H         -4.19007       -3.99602       -0.98150
C         -1.42339        3.11823       -0.55605
H         -1.28109        4.02100        0.04238
H         -0.51779        2.52085       -0.45502
H         -1.49710        3.42414       -1.60131
Cl        -1.68109        0.12961        2.39427
Pd        -0.05889        0.11739        0.84161
