105
-153.06553920
Cl         0.14496        2.79267        2.72116
Pd        -0.21746        1.71213        0.77675
P         -0.71881        0.52055       -1.19760
N          0.42857       -0.75158       -1.60241
C          0.50143       -2.14221       -1.42265
C         -0.01967       -2.83063       -0.29387
C          0.27649       -4.19923       -0.11828
C         -0.10339       -4.87845        1.17704
C          0.73674       -6.12863        1.47364
C          0.74116       -7.06298        0.26014
C          1.33193       -6.36278       -0.97556
C          0.99272       -4.89514       -1.09565
C          1.46400       -4.20749       -2.20684
C          1.24673       -2.86258       -2.35451
H          1.65077       -2.33790       -3.20310
H          2.03357       -4.74360       -2.94722
H          2.42414       -6.46125       -0.96277
H          1.28833       -7.98942        0.48453
H          1.76616       -5.82759        1.70500
H         -0.01426       -4.15886        2.00064
C         -0.68397       -2.09194        0.80816
C          0.10723       -1.22235        1.60042
C         -0.47041       -0.60261        2.70804
C         -1.78711       -0.81947        3.02212
C         -2.58392       -1.66461        2.25697
C         -4.01675       -1.87518        2.69396
C         -4.85960       -2.79956        1.79276
C         -3.99994       -3.88102        1.12888
C         -2.88484       -3.22112        0.30871
C         -2.03060       -2.30777        1.14691
H         -2.27113       -3.96891       -0.20526
H         -4.60986       -4.54999        0.50550
H         -5.34681       -2.20313        1.01181
H         -4.49891       -0.89321        2.78011
H         -2.22156       -0.32618        3.87503
H          0.12819        0.07094        3.29497
N          1.41997       -0.94686        1.21241
P          1.88887        0.74384        1.09286
C          2.71184        1.04445       -0.46957
C          2.36707        2.15199       -1.20785
C          2.85286        2.29705       -2.49346
C          3.68462        1.33440       -3.04737
C          4.03109        0.22951       -2.28168
C          3.55117        0.08804       -0.99200
H          3.79761       -0.78303       -0.40539
H          4.66861       -0.52695       -2.70678
C          4.15377        1.46038       -4.45481
H          2.56470        3.14891       -3.08554
H          1.69661        2.88720       -0.79160
C          2.83162        1.32174        2.49426
C          2.98541        0.48823        3.57530
C          3.69338        0.92269        4.68173
C          4.24286        2.19790        4.71015
C          4.08293        3.02008        3.60219
C          3.37521        2.58343        2.49663
H          3.23827        3.22217        1.63835
H          4.51365        4.00672        3.61195
C          5.02362        2.66185        5.89033
H          3.82219        0.27298        5.53043
H          2.55341       -0.49936        3.54362
H          1.68595       -1.34939        0.32064
H          1.27988       -0.26392       -1.85721
C         -0.56742        1.71333       -2.53413
C         -0.92210        3.03241       -2.38540
C         -0.75245        3.91713       -3.43263
C         -0.23684        3.48399       -4.64667
C          0.10935        2.14702       -4.78456
C         -0.06024        1.26571       -3.73164
H          0.21504        0.22844       -3.83458
H          0.52057        1.80200       -5.71779
C         -0.01832        4.44111       -5.76620
H         -1.01855        4.95335       -3.31202
H         -1.33405        3.36436       -1.44846
C         -2.37638       -0.14193       -1.33595
C         -2.59806       -1.04917       -2.34554
C         -3.87487       -1.53517       -2.57009
C         -4.93785       -1.11253       -1.78310
C         -4.69416       -0.19428       -0.77019
C         -3.42014        0.29640       -0.55703
H         -3.24157        1.04819        0.19165
H         -5.51123        0.14402       -0.15615
C         -6.30237       -1.66849       -1.99709
H         -4.05070       -2.25322       -3.35267
H         -1.76776       -1.37347       -2.95318
Cl        -2.11061        2.89520        0.51059
H          1.00515       -6.87189       -1.89123
H          0.37030       -6.64823        2.37033
H         -0.28826       -7.37622        0.04455
H         -1.16148       -5.15817        1.14254
H         -3.55396       -4.51713        1.90342
H         -3.33471       -2.62840       -0.49134
H         -4.00128       -2.27940        3.71336
H         -5.68155       -3.25468        2.36281
H          3.46174        0.96599       -5.13807
H          4.22944        2.50709       -4.75269
H          5.13743        1.00690       -4.58427
H          6.08474        2.44335        5.76313
H          4.91597        3.73779        6.03441
H          4.68585        2.17095        6.80406
H         -0.70270        5.28804       -5.70087
H          1.00081        4.82986       -5.74941
H         -0.17926        3.95962       -6.73178
H         -7.06650       -1.01802       -1.56938
H         -6.51804       -1.77780       -3.06084
H         -6.39782       -2.65050       -1.53153
