105
-153.06355465
Cl         0.02230        1.99648        3.08006
Pd        -0.44312        1.36941        0.96810
P         -1.07639        0.51659       -1.14193
N         -0.63754       -0.97443       -1.97288
C          0.24287       -1.99359       -1.61501
C          0.35004       -2.47936       -0.28762
C          1.27749       -3.50447       -0.00168
C          1.35550       -4.05028        1.40514
C          2.57634       -4.94227        1.68348
C          2.82508       -5.91460        0.52762
C          3.06377       -5.14552       -0.77947
C          2.05697       -4.05045       -1.02597
C          1.90136       -3.58434       -2.32516
C          1.01075       -2.58527       -2.61671
H          0.91281       -2.22412       -3.62565
H          2.50337       -4.01221       -3.10891
H          4.06631       -4.70164       -0.76942
H          3.66989       -6.58139        0.75168
H          3.46323       -4.31098        1.82159
H          1.35288       -3.21060        2.10882
C         -0.66468       -2.10804        0.72895
C         -0.26797       -1.49405        1.94731
C         -1.21803       -1.35406        2.96315
C         -2.50781       -1.78359        2.78884
C         -2.91768       -2.37506        1.60016
C         -4.34386       -2.86078        1.50211
C         -4.78481       -3.23884        0.07905
C         -3.68889       -4.03308       -0.63603
C         -2.39342       -3.21317       -0.72639
C         -1.99594       -2.53642        0.56360
H         -1.56849       -3.85408       -1.06177
H         -4.02369       -4.34789       -1.63459
H         -5.00067       -2.32813       -0.49286
H         -5.00894       -2.09196        1.91485
H         -3.22400       -1.66477        3.58425
H         -0.92625       -0.87942        3.88353
N          1.02510       -0.98830        2.14766
P          1.61075        0.22302        1.01075
C          2.60847       -0.33525       -0.35701
C          2.42184        0.25505       -1.58211
C          3.22970       -0.10523       -2.64498
C          4.23155       -1.05259       -2.47866
C          4.42467       -1.61011       -1.22113
C          3.61368       -1.25023       -0.15973
H          3.75688       -1.67712        0.82025
H          5.21254       -2.32978       -1.07902
C          5.10582       -1.43947       -3.61975
H          3.08333        0.34583       -3.61137
H          1.63895        0.98507       -1.70036
C          2.56363        1.51106        1.82180
C          3.26559        1.23309        2.96988
C          4.00236        2.23140        3.58133
C          4.03775        3.51232        3.04647
C          3.33781        3.76634        1.87460
C          2.60255        2.76696        1.26340
H          2.05616        2.96170        0.35350
H          3.37076        4.75246        1.44385
C          4.84593        4.58261        3.69359
H          4.55539        2.02058        4.48068
H          3.24200        0.23675        3.38066
H          1.16123       -0.54507        3.04697
H         -0.91223       -0.88836       -2.94351
C         -0.63115        1.90284       -2.20398
C         -0.95445        3.18582       -1.83237
C         -0.60414        4.25206       -2.63796
C          0.07992        4.04245       -3.82713
C          0.38535        2.74036       -4.19818
C          0.03016        1.67688       -3.38897
H          0.28130        0.66967       -3.67559
H          0.90405        2.56442       -5.12513
C          0.44001        5.18771       -4.70819
H         -0.86129        5.25621       -2.34690
H         -1.48524        3.34713       -0.90946
C         -2.87251        0.49446       -1.08460
C         -3.55362        0.69941       -2.26119
C         -4.93724        0.68323       -2.26918
C         -5.64755        0.46130       -1.09754
C         -4.94215        0.26682        0.08142
C         -3.55979        0.26742        0.08242
H         -3.00980        0.10761        0.99576
H         -5.48275        0.11893        1.00045
C         -7.13636        0.47156       -1.09704
H         -5.47415        0.84927       -3.18744
H         -2.99955        0.87616       -3.16994
Cl        -2.31635        2.62065        0.98693
H          3.05724       -5.83541       -1.63310
H          2.45385       -5.48729        2.63013
H          1.95343       -6.57086        0.41056
H          0.43419       -4.60802        1.61084
H         -3.49405       -4.96116       -0.08409
H         -2.50106       -2.44335       -1.49929
H         -4.45854       -3.72804        2.16335
H         -5.72745       -3.80393        0.09775
H          5.99339       -0.80664       -3.66015
H          5.43410       -2.47594       -3.52911
H          4.57858       -1.34217       -4.56987
H          4.90623        4.43238        4.77239
H          5.86226        4.59391        3.29753
H          4.40614        5.56595        3.52135
H          0.61712        6.09248       -4.12501
H          1.34752        4.97758       -5.27596
H         -0.36101        5.39650       -5.41861
H         -7.53289        0.11363       -2.04824
H         -7.53401       -0.17117       -0.31025
H         -7.51616        1.48064       -0.93162
