171
-217.84390219
P         -1.59246        0.40712       -0.36945
P          1.64179       -0.41498       -0.41959
C         -0.89887        1.34772       -1.73059
C          0.90537       -1.36305       -1.75560
C         -0.11107        0.72637       -2.69232
C          0.49130        1.51881       -3.68764
C          0.24607        2.88194       -3.70982
C         -0.56616        3.47334       -2.76564
C         -1.12881        2.70125       -1.76826
C          1.12278       -2.71931       -1.78479
C          0.50746       -3.50242       -2.74135
C         -0.34344       -2.91887       -3.65549
C         -0.57470       -1.55362       -3.64563
C          0.07787       -0.75046       -2.69007
Cl         1.61772        0.31499        2.79449
Cl        -1.55309       -0.36610        2.78311
C         -1.50876       -0.96772       -4.64638
C          1.35996        0.90789       -4.73050
H         -0.75721        4.53342       -2.80188
H         -1.75231        3.15578       -1.01515
H          1.77734       -3.16995       -1.05660
H          0.68587       -4.56500       -2.76733
H          0.69792        3.48198       -4.48159
H         -0.84117       -3.52683       -4.39215
C         -3.97994       -3.25117       -1.52744
C         -2.97947       -3.37634       -0.57076
C         -2.23791       -2.24566       -0.25790
C         -2.49155       -1.05098       -0.88309
C         -3.48114       -0.94169       -1.82849
C         -4.25157       -2.04784       -2.16827
H         -4.58242       -4.10596       -1.77033
H         -1.47130       -2.29032        0.49679
H         -3.65635        0.01902       -2.28225
C         -4.27561        2.94965        2.26336
C         -4.84447        1.94823        1.48430
C         -4.00219        1.19917        0.67498
C         -2.65412        1.45156        0.63999
C         -2.10910        2.44863        1.40974
C         -2.91000        3.21290        2.24779
H         -4.90930        3.53054        2.90528
H         -4.40086        0.39727        0.07861
H         -1.04536        2.61422        1.37815
C          4.29453       -2.92150        2.27924
C          2.94844       -3.24953        2.16503
C          2.16809       -2.49473        1.29977
C          2.70997       -1.44466        0.60105
C          4.03763       -1.12592        0.73762
C          4.85956       -1.85888        1.58300
H          4.91593       -3.50320        2.93214
H          1.12079       -2.71508        1.18136
H          4.43344       -0.28881        0.18981
C          3.93904        3.32381       -1.51408
C          2.89800        3.41369       -0.59742
C          2.17891        2.25925       -0.31942
C          2.50402        1.07050       -0.92412
C          3.53863        0.99612       -1.82378
C          4.28567        2.12686       -2.13180
H          4.50158        4.20770       -1.74420
H          1.36486        2.28251        0.38454
H          3.77598        0.04493       -2.27057
Pd         0.04056       -0.03321        1.23346
C         -3.64440       -5.81613       -0.26747
C         -2.68652       -4.69034        0.16595
C         -2.84729       -4.46814        1.68208
C         -1.24480       -5.12819       -0.14310
H         -3.42311       -6.73906        0.26849
H         -4.68055       -5.55210       -0.05657
H         -3.54953       -6.02339       -1.33322
H         -2.65457       -5.38773        2.23428
H         -2.15686       -3.70972        2.04835
H         -3.85881       -4.13773        1.91701
H         -0.99147       -6.04550        0.38799
H         -1.12013       -5.30979       -1.21003
H         -0.53145       -4.35969        0.15025
C         -5.27570       -3.02874       -4.24762
C         -5.42534       -1.95433       -3.15369
C         -5.48894       -0.57246       -3.83388
C         -6.73924       -2.17995       -2.38337
H         -6.08330       -2.95676       -4.97595
H         -4.33239       -2.91231       -4.77967
H         -5.29998       -4.03295       -3.82672
H         -5.65389        0.21886       -3.10304
H         -4.56753       -0.35677       -4.37366
H         -6.30923       -0.53184       -4.55038
H         -7.59972       -2.10722       -3.04825
H         -6.75804       -3.16449       -1.91712
H         -6.85654       -1.43571       -1.59579
C         -7.12081        2.55171        2.45319
C         -6.34427        1.62094        1.50259
C         -6.53701        0.16691        1.97357
C         -6.91648        1.78353        0.08181
H         -8.18333        2.30871        2.44941
H         -6.76398        2.45187        3.47810
H         -7.01974        3.59391        2.15085
H         -7.59461       -0.09234        2.01820
H         -6.05003       -0.53637        1.29882
H         -6.11123        0.02509        2.96664
H         -7.98514        1.57033        0.06451
H         -6.76876        2.80136       -0.27857
H         -6.43108        1.10688       -0.62044
C         -3.28921        4.99507        4.02785
C         -2.25406        4.27075        3.14647
C         -1.54322        5.31509        2.26785
C         -1.22648        3.58054        4.06449
H         -2.80506        5.73968        4.65964
H         -4.03049        5.51177        3.41852
H         -3.80603        4.29364        4.68254
H         -0.76157        4.85355        1.66782
H         -2.24865        5.79361        1.58881
H         -1.08028        6.09044        2.87803
H         -0.75257        4.29998        4.73181
H         -1.70850        2.81751        4.67513
H         -0.44107        3.09426        3.48728
C          2.04363       -5.57071        1.96083
C          2.31115       -4.41338        2.93760
C          0.98337       -3.95094        3.57242
C          3.23105       -4.91608        4.06727
H          1.56258       -6.40768        2.46665
H          1.39628       -5.25085        1.14590
H          2.97516       -5.92870        1.52282
H          1.14329       -3.07940        4.20683
H          0.24817       -3.68270        2.81574
H          0.54819       -4.74016        4.18507
H          2.73914       -5.69638        4.64792
H          4.15265       -5.33953        3.66902
H          3.48846       -4.10573        4.74915
C          7.04336       -1.73208        0.36775
C          6.34037       -1.47403        1.71179
C          7.05090       -2.29379        2.80604
C          6.45147        0.01932        2.07736
H          6.58463       -1.15137       -0.43091
H          8.09757       -1.46029        0.41836
H          6.97735       -2.78493        0.09406
H          7.04740       -3.35699        2.56689
H          8.09123       -1.98448        2.90633
H          6.56910       -2.15430        3.77364
H          7.49244        0.31004        2.21737
H          6.03385        0.65436        1.29713
H          5.91439        0.22909        3.00210
C          2.39565        4.48582        1.62276
C          2.52253        4.72687        0.10481
C          1.18003        5.22358       -0.45421
C          3.58695        5.81823       -0.12031
H          2.17221        5.41448        2.14758
H          1.59928        3.77979        1.85248
H          3.32445        4.08432        2.02727
H          0.39949        4.47887       -0.30635
H          0.86715        6.14577        0.03508
H          1.25840        5.41760       -1.52360
H          4.56611        5.48529        0.22367
H          3.66214        6.08558       -1.17402
H          3.33243        6.72494        0.42845
C          4.98077        1.58493       -4.48286
C          5.47990        2.01025       -3.09153
C          6.46260        0.95461       -2.55091
C          6.23430        3.34682       -3.23150
H          4.45995        0.62913       -4.43990
H          4.29468        2.32840       -4.88723
H          5.81183        1.48092       -5.18027
H          6.79604        1.21779       -1.54719
H          5.99864       -0.02971       -2.50523
H          7.34243        0.87665       -3.18935
H          5.58755        4.12235       -3.64140
H          6.61469        3.68506       -2.26777
H          7.08603        3.24105       -3.90338
H         -1.05864       -0.95408       -5.63991
H          1.89062        0.03786       -4.34096
H         -1.78672        0.05435       -4.38592
H         -2.42668       -1.55296       -4.70472
H          2.10476        1.62043       -5.08567
H          0.77119        0.58790       -5.59083
