58
-89.86594577
P          1.64407        0.09761        0.89547
C          1.86872        1.83444        0.49111
C          2.11344        2.16113       -0.82332
C          2.25973        3.48506       -1.19254
C          2.16071        4.47680       -0.23726
C          1.92021        4.14649        1.08201
C          1.77446        2.82038        1.44756
H          1.58384        2.55600        2.47439
H          2.17882        1.37097       -1.55416
C          3.18292       -0.80519        0.69885
C          3.15981       -2.18095        0.69793
C          4.33896       -2.88692        0.53764
C          5.53141       -2.20825        0.38012
C          5.54866       -0.82732        0.38181
C          4.36825       -0.12421        0.54159
H          4.36436        0.95382        0.53896
H          2.21925       -2.69658        0.81321
C          1.12578       -0.15359        2.64371
C         -0.29996        0.26181        2.96934
C         -1.35582       -0.67323        2.39531
P         -1.74618       -0.30956        0.63944
C         -3.08371       -1.38098        0.09281
C         -4.05679       -0.88636       -0.74564
C         -5.06794       -1.71628       -1.19515
C         -5.09366       -3.04081       -0.80646
C         -4.10912       -3.53712        0.02470
C         -3.09873       -2.70435        0.47178
H         -2.31470       -3.08684        1.10530
H         -4.01333        0.14435       -1.05886
C         -2.24124        1.41583        0.55179
C         -3.48104        1.79163        1.01714
C         -3.85387        3.12382        0.98344
C         -2.97713        4.07222        0.49419
C         -1.72901        3.69241        0.04292
C         -1.36282        2.35992        0.07511
H         -0.38390        2.05667       -0.25162
H         -4.15070        1.04202        1.40832
Pd         0.12891       -0.65959       -0.69270
Cl         1.90973       -0.87818       -2.05461
Cl        -1.29555       -1.51990       -2.20412
H         -1.04355       -1.71530        2.47820
H         -2.30463       -0.57955        2.92964
H         -0.41666        0.31199        4.06339
H         -0.48256        1.28433        2.61285
H          1.27066       -1.21249        2.86644
H          1.85140        0.39047        3.25300
H          2.44750        3.74028       -2.22247
H          1.84279        4.92147        1.82681
H          4.32490       -3.96441        0.53147
H          6.47856       -0.29768        0.25528
H         -5.82921       -1.33052       -1.85312
H         -4.12312       -4.57342        0.32003
H         -4.82605        3.42019        1.34169
H         -1.03665        4.43100       -0.32616
H          2.27221        5.51050       -0.52146
H          6.45000       -2.75748        0.25256
H         -5.87882       -3.68997       -1.15841
H         -3.26553        5.11045        0.46930
