59
-75.79829620
Cl         1.65730        0.72789        2.28941
P          1.64796        0.06981       -0.81277
P         -1.54907       -0.11404       -0.82365
C          0.67647        0.25550       -2.36953
H          0.38246        1.30258       -2.47662
H          1.32007        0.00205       -3.21767
C         -0.53129       -0.63339       -2.27756
H         -0.23131       -1.67468       -2.13210
H         -1.15204       -0.59169       -3.17816
C          2.58482       -1.52611       -0.86169
H          2.40937       -1.96104       -1.85305
C          3.05879        1.25451       -0.65216
H          3.13901        1.48992        0.41617
C         -2.73702       -1.41878       -0.25193
H         -2.65195       -1.45311        0.84079
C         -2.75770        1.18746       -1.35707
H         -2.79261        1.08198       -2.45009
C          4.05579       -1.09078       -0.71139
H          4.36244       -1.23962        0.33290
H          4.71298       -1.74215       -1.30694
C          4.26007        0.40181       -1.09491
H          4.37673        0.49185       -2.18395
H          5.19198        0.79742       -0.66233
C         -4.11153       -0.85761       -0.65859
H         -4.39572       -1.28527       -1.62974
H         -4.88642       -1.19002        0.04866
C         -4.08797        0.69206       -0.76441
H         -4.22497        1.12243        0.23536
H         -4.93531        1.06044       -1.36269
C          2.09132       -2.47025        0.22758
H          1.00202       -2.58523        0.13858
H          2.25001       -1.99427        1.20482
C          2.84368        2.53494       -1.44795
H          3.78558        3.09980       -1.48664
H          2.62122        2.27292       -2.49044
C         -2.41253       -2.78722       -0.83799
H         -2.47521       -2.72824       -1.93258
H         -1.36448       -3.03334       -0.61893
C         -2.36085        2.62057       -0.99949
H         -1.39892        2.84583       -1.47869
H         -3.07895        3.31129       -1.46304
C          2.76496       -3.83366        0.18640
H          3.84516       -3.74707        0.31631
H          2.59488       -4.32772       -0.77209
H          2.39290       -4.49797        0.96971
C          1.73827        3.40242       -0.86425
H          0.80114        2.85009       -0.78842
H          1.55056        4.29348       -1.46747
H          1.98943        3.73415        0.14504
C         -3.32369       -3.88787       -0.31532
H         -3.07004       -4.86409       -0.73490
H         -4.36856       -3.68815       -0.55947
H         -3.25770       -3.96987        0.77126
C         -2.26978        2.91775        0.48954
H         -1.92093        3.93543        0.68033
H         -3.23553        2.81410        0.98566
H         -1.57833        2.24306        0.99160
Cl        -1.62885        0.15514        2.34163
Pd         0.04193        0.15836        0.84381
