75
-122.80563167
P          1.90806       -0.12658        0.09070
C          1.82239       -0.77168       -1.58937
C          1.86821       -2.13364       -1.78200
C          1.78998       -2.65209       -3.06094
C          1.66415       -1.80005       -4.14011
C          1.60866       -0.43453       -3.94224
C          1.68330        0.07956       -2.66110
H          1.61161        1.14063       -2.48874
H          1.49594        0.22985       -4.78310
H          1.59882       -2.20197       -5.13798
H          1.82103       -3.71839       -3.21297
H          1.94805       -2.78293       -0.92432
C          3.34464       -0.79338        0.95048
C          3.46561       -0.56338        2.30159
C          4.57532       -1.03100        2.98233
C          5.55967       -1.71941        2.30162
C          5.43899       -1.93812        0.94368
C          4.32829       -1.46990        0.26650
H          4.22897       -1.62337       -0.79528
H          6.20854       -2.47289        0.41160
H          6.42359       -2.08670        2.83114
H          4.66873       -0.85972        4.04209
H          2.68812       -0.02218        2.81798
C          2.22313        1.64707        0.04523
C          3.42173        2.20344        0.43040
C          3.60161        3.57955        0.41669
C          2.53410        4.38780        0.02963
C          1.33088        3.84295       -0.36067
C          1.17707        2.44696       -0.37551
O         -0.01429        1.83425       -0.77894
C         -1.18709        2.43687       -0.31064
C         -1.34796        3.83136       -0.27050
C         -2.52654        4.36278        0.20477
C         -3.56466        3.54248        0.64408
C         -3.38268        2.16678        0.61516
C         -2.20779        1.62480        0.14662
P         -1.89291       -0.14646        0.07906
C         -3.29536       -0.87336        0.94249
C         -4.34318       -1.41800        0.23696
C         -5.42638       -1.94604        0.91496
C         -5.45288       -1.91989        2.29531
C         -4.40168       -1.36559        2.99845
C         -3.31966       -0.83754        2.31747
H         -2.49093       -0.39914        2.85115
H         -4.42177       -1.34581        4.07566
H         -6.29534       -2.33380        2.82501
H         -6.24693       -2.37820        0.36617
H         -4.31086       -1.42648       -0.84033
C         -1.85930       -0.68003       -1.64387
C         -1.87683       -2.02529       -1.93079
C         -1.85366       -2.45500       -3.24367
C         -1.81081       -1.52939       -4.26686
C         -1.78479       -0.17950       -3.97788
C         -1.80623        0.24411       -2.66210
H         -1.76307        1.29359       -2.42334
H         -1.73929        0.54363       -4.77550
H         -1.78859       -1.86106       -5.29208
H         -1.86284       -3.50929       -3.46613
H         -1.89390       -2.73332       -1.11882
Pd         0.00782       -1.43394        0.77816
Cl        -1.53427       -3.05371        1.12355
Cl         1.50850       -2.75928        1.81081
H         -4.16515        1.51680        0.96550
C         -4.82317        4.12952        1.17647
H         -5.04409        5.08529        0.69953
H         -4.74682        4.29868        2.25127
H         -5.67153        3.46712        0.99923
H         -2.64345        5.43173        0.23515
S         -0.03037        4.87215       -0.83956
H          2.64585        5.45774        0.03776
C          4.88758        4.18032        0.86061
H          4.22498        1.56472        0.75334
H          4.87618        4.36850        1.93491
H          5.72645        3.51764        0.64370
H          5.07465        5.12811        0.35419
