111
-148.55559914
P         -1.64644        2.79868        0.18348
P         -0.51998       -0.13950        0.50998
C         -1.41306        2.09668        1.84239
C         -0.99829        0.78881        1.98108
C         -0.43352        4.16434       -0.11025
C          0.50722        3.80898       -1.24200
C         -1.61950        2.87323        2.96489
H         -1.90239        3.90684        2.85196
C         -1.43745        2.32837        4.22425
H         -1.60310        2.93384        5.10039
C         -1.03788        1.01274        4.35971
H         -0.89072        0.59020        5.34002
C         -0.80683        0.24372        3.23358
H         -0.45957       -0.77338        3.32133
Pd        -1.59047        0.96261       -1.22551
Cl        -2.89739        2.07626       -2.66126
Cl        -1.30240       -0.91120       -2.43505
C         -1.32849        5.38778       -0.39548
C         -3.23395        3.73885        0.01819
H          1.20716        4.62167       -1.44973
H          1.08870        2.91407       -1.01214
H         -0.05120        3.60799       -2.15858
H         -1.37327        5.54346       -1.48206
H         -0.86957        6.30104        0.01223
H         -3.58404        3.55757       -1.00609
C         -2.77140        5.20038        0.15447
C         -4.28634        3.29834        1.01332
H          0.11351        4.29393        0.83276
H         -2.80493        5.48817        1.21410
H         -3.47737        5.87380       -0.35540
H         -4.50139        2.23195        0.91418
H         -3.95842        3.47136        2.03846
H         -5.22065        3.84657        0.87291
C         -0.50951       -4.66429        0.99709
C         -1.64459       -4.02696        0.43345
C         -1.62264       -2.64892        0.29375
C         -0.55926       -1.91143        0.74257
C          0.49596       -2.51208        1.37824
C          0.53257       -3.88461        1.56119
O         -0.39817       -6.07981        0.96086
C         -2.86601       -4.80907       -0.07410
H         -2.42764       -2.13095       -0.19820
H          1.30663       -1.88900        1.71625
C          1.71103       -4.50156        2.33071
C          3.58046        1.38056       -0.76121
C          2.86120        0.49592       -1.60812
C          1.62142        0.04995       -1.18481
C          1.13033        0.38486        0.04838
C          1.87239        1.13919        0.91812
C          3.12189        1.61756        0.56220
O          4.69994        2.09171       -1.26472
C          3.36347        0.01228       -2.97790
H          0.99474       -0.53249       -1.83827
H          1.45518        1.37265        1.88242
C          3.92606        2.37668        1.63013
C         -2.65105       -5.17923       -1.54965
C         -3.10246       -6.07821        0.76454
C         -4.14790       -3.95251        0.03565
C          2.85323       -4.80833        1.35016
C          2.23353       -3.51905        3.40407
C          1.28397       -5.78336        3.06870
C          0.25842       -6.57928       -0.19773
H         -3.50925       -5.72138       -1.94573
H         -2.50866       -4.28337       -2.15368
H         -1.77091       -5.80510       -1.67513
H         -4.00540       -6.59719        0.44386
H         -2.27331       -6.77520        0.67298
H         -3.21209       -5.82637        1.81882
H         -4.13227       -3.11280       -0.65747
H         -5.03070       -4.54564       -0.20195
H         -4.26858       -3.56288        1.04609
H          3.71035       -5.23515        1.87035
H          2.53825       -5.51464        0.58584
H          3.18218       -3.89989        0.84586
H          2.98112       -3.99825        4.03581
H          2.70629       -2.64577        2.95706
H          1.42138       -3.17895        4.04613
H          2.10332       -6.18358        3.66535
H          0.44625       -5.58099        3.73522
H          0.97541       -6.55894        2.37240
H         -0.40911       -7.25332       -0.73428
H          0.55003       -5.75784       -0.85345
H          1.14425       -7.14171        0.09677
C          4.34414        3.33133       -1.85514
C          4.86676        0.27121       -3.17586
C          3.14788       -1.51336       -3.09190
C          2.56728        0.71683       -4.08936
C          3.29086        3.75845        1.85927
C          3.89577        1.58088        2.95408
C          5.40500        2.54568        1.24154
H          5.22079       -0.16453       -4.10985
H          5.08240        1.33650       -3.20773
H          5.44213       -0.16179       -2.35835
H          3.63588       -2.03315       -2.26787
H          2.09129       -1.77530       -3.07630
H          3.56288       -1.89575       -4.02405
H          1.50080        0.51565       -3.99216
H          2.70561        1.79552       -4.04988
H          2.88489        0.37342       -5.07343
H          2.25738        3.66157        2.19051
H          3.83555        4.31603        2.62068
H          3.29195        4.34914        0.94518
H          4.51953        2.05896        3.70894
H          2.88892        1.51136        3.36251
H          4.26825        0.56816        2.80212
H          5.97523        2.99734        2.05296
H          5.51379        3.18458        0.36856
H          5.85299        1.58078        1.00672
H          3.61983        3.17243       -2.65228
H          3.90400        3.98974       -1.10824
H          5.23669        3.80219       -2.26757
