105
-153.06399266
Cl         0.02238        1.94133        3.07615
Pd        -0.45307        1.35518        0.95345
P         -1.08892        0.51310       -1.15771
N         -0.65264       -0.98916       -1.96956
C          0.24478       -1.99226       -1.60647
C          0.35517       -2.47359       -0.27748
C          1.29213       -3.48900        0.01211
C          1.37024       -4.03558        1.41867
C          2.60146       -4.91149        1.70208
C          2.86662       -5.88143        0.54793
C          3.09950       -5.11047       -0.75908
C          2.08072       -4.02731       -1.00935
C          1.92383       -3.56444       -2.30952
C          1.02221       -2.57659       -2.60513
H          0.92210       -2.21897       -3.61511
H          2.53312       -3.98627       -3.09092
H          4.09677       -4.65492       -0.74682
H          3.71943       -6.53682        0.77536
H          3.47962       -4.26866        1.84275
H          1.35291       -3.19751        2.12385
C         -0.66248       -2.10569        0.73729
C         -0.26932       -1.49198        1.95714
C         -1.22329       -1.34916        2.96890
C         -2.51358       -1.77464        2.78933
C         -2.91987       -2.36618        1.59956
C         -4.34700       -2.84825        1.49661
C         -4.78255       -3.22992        0.07291
C         -3.68512       -4.02898       -0.63434
C         -2.38812       -3.21125       -0.72229
C         -1.99404       -2.53167        0.56728
H         -1.56286       -3.85393       -1.05345
H         -4.01621       -4.34724       -1.63305
H         -4.99340       -2.32048       -0.50289
H         -5.01178       -2.07624        1.90380
H         -3.23283       -1.65311        3.58158
H         -0.93413       -0.87472        3.89021
N          1.02433       -0.98941        2.16374
P          1.61464        0.23078        1.03858
C          2.60443       -0.31391       -0.34079
C          2.39947        0.27773       -1.56236
C          3.20141       -0.06981       -2.63385
C          4.21562       -1.00598       -2.48002
C          4.42678       -1.56530       -1.22619
C          3.62174       -1.21813       -0.15604
H          3.77936       -1.64618        0.82121
H          5.22418       -2.27629       -1.09378
C          5.08329       -1.37879       -3.63078
H          3.04096        0.38261       -3.59735
H          1.60744        0.99929       -1.67112
C          2.56911        1.51119        1.85907
C          3.27195        1.22075        3.00355
C          4.00959        2.21220        3.62499
C          4.05489        3.49563        3.09691
C          3.33868        3.76713        1.93884
C          2.60251        2.77461        1.31759
H          2.04892        2.98118        0.41473
H          3.35766        4.76217        1.52819
C          4.82265        4.57142        3.78295
H          4.55365        1.99462        4.52819
H          3.24566        0.22080        3.40543
H          1.15815       -0.55165        3.06609
H         -0.92560       -0.91100       -2.94133
C         -0.63938        1.88682       -2.23357
C          0.02431        1.64481       -3.41406
C          0.38512        2.69743       -4.23493
C          0.07213        4.00386       -3.88609
C         -0.59748        4.23116       -2.69195
C         -0.95323        3.17565       -1.87465
H         -1.47789        3.35037       -0.95078
H         -0.83672        5.24090       -2.40498
C          0.48359        5.14152       -4.75443
H          0.91642        2.50975       -5.15239
H          0.27656        0.63377       -3.68586
C         -2.88490        0.49436       -1.09904
C         -3.56623        0.68247       -2.27829
C         -4.94988        0.66707       -2.28553
C         -5.65998        0.47543       -1.10832
C         -4.95409        0.27919        0.06999
C         -3.57176        0.27871        0.07048
H         -3.02185        0.12314        0.98456
H         -5.49458        0.12812        0.98858
C         -7.14833        0.43576       -1.11356
H         -5.48665        0.80773       -3.20808
H         -3.01230        0.84231       -3.19027
Cl        -2.30049        2.64151        0.94494
H          3.10324       -5.80105       -1.61217
H          2.48268       -5.45728        2.64878
H          2.00410       -6.54926        0.42869
H          0.45546       -4.60595        1.61880
H         -3.49407       -4.95509       -0.07780
H         -2.49275       -2.44330       -1.49737
H         -4.46709       -3.71297        2.16021
H         -5.72666       -3.79263        0.08909
H          5.95798       -0.72917       -3.68333
H          5.43248       -2.40857       -3.54209
H          4.54270       -1.29377       -4.57456
H          4.19437        5.09384        4.50558
H          5.68199        4.16323        4.31679
H          5.19593        5.30607        3.06809
H          1.47404        5.50328       -4.47498
H          0.51728        4.84424       -5.80351
H         -0.21555        5.97461       -4.66928
H         -7.50796       -0.58778       -1.22819
H         -7.55483        0.83327       -0.18255
H         -7.55593        1.02994       -1.93257
