59
-75.79740380
Cl         1.65904        0.38916        2.37786
P          1.58340       -0.13256       -0.77948
P         -1.58071        0.00112       -0.77543
C          0.65569       -0.56994       -2.31529
H          1.28485       -0.35726       -3.18432
H          0.51008       -1.65231       -2.28838
C         -0.66612        0.14990       -2.37436
H         -1.30319       -0.21565       -3.18481
H         -0.52137        1.21900       -2.54589
C          2.92855       -1.35582       -0.44623
H          3.12619       -1.85718       -1.40162
C          2.57352        1.43372       -0.83242
H          2.29889        1.99345        0.07020
C         -2.59977       -1.53190       -0.55635
H         -2.33798       -1.92804        0.43257
C         -2.90301        1.28816       -0.65960
H         -3.08982        1.62270       -1.68744
C          4.11500       -0.45960       -0.05017
H          4.11262       -0.33402        1.04155
H          5.06794       -0.95631       -0.28884
C          4.02742        0.93472       -0.73012
H          4.45209        0.87291       -1.74148
H          4.64757        1.66946       -0.19452
C         -4.04422       -0.99670       -0.55207
H         -4.46357       -1.10230       -1.56202
H         -4.68035       -1.61681        0.09761
C         -4.10738        0.49530       -0.12263
H         -4.11059        0.55943        0.97437
H         -5.05002        0.96072       -0.44903
C          2.53599       -2.37908        0.61327
H          2.29747       -1.85043        1.54500
H          3.41000       -3.00110        0.85180
C          2.28873        2.27050       -2.07382
H          2.54414        1.68232       -2.96474
H          1.20974        2.45455       -2.14804
C         -2.32551       -2.57982       -1.62826
H         -2.56841       -2.15496       -2.61079
H         -1.24927       -2.79095       -1.66197
C         -2.49146        2.47026        0.21035
H         -3.35202        3.14284        0.33171
H         -2.26771        2.10565        1.22092
C          1.36648       -3.25748        0.19610
H          1.58725       -3.79862       -0.72583
H          0.47021       -2.66314        0.01404
H          1.11566       -3.99651        0.96039
C          3.03858        3.59430       -2.08157
H          2.77869        4.19839       -1.21016
H          2.81471        4.18728       -2.97134
H          4.11867        3.43970       -2.05469
C         -3.09789       -3.87165       -1.40605
H         -2.85114       -4.31602       -0.43989
H         -2.88155       -4.61641       -2.17543
H         -4.17525       -3.69702       -1.41352
C         -1.30082        3.23750       -0.34346
H         -0.41815        2.60058       -0.41291
H         -1.50558        3.61572       -1.34672
H         -1.03565        4.09180        0.28350
Cl        -1.69653        0.02534        2.35161
Pd         0.01255        0.05102        0.89837
