111
-148.55015827
P         -2.69009        2.02991       -0.34974
P          0.05388        0.56610        0.29364
C         -1.88055        2.28874        1.25151
C         -0.67357        1.67762        1.51263
C         -3.47069        3.59342       -0.96200
C         -2.91423        3.99878       -2.30903
C         -2.46824        3.08850        2.21077
H         -3.41381        3.56214        2.00300
C         -1.84418        3.27068        3.43290
H         -2.30336        3.89377        4.18294
C         -0.63551        2.65383        3.69304
H         -0.15109        2.79293        4.64549
C         -0.04941        1.85240        2.72986
H          0.88840        1.35465        2.92011
Pd        -1.15488        0.90092       -1.66025
Cl        -2.60097        0.98537       -3.36594
Cl         0.56892       -0.12393       -2.68359
C         -4.97649        3.25322       -0.97837
C         -4.17086        0.92464       -0.27291
H         -3.13791        3.24131       -3.06119
H         -3.34608        4.94108       -2.65450
H         -1.82865        4.11676       -2.27200
H         -5.45962        3.77245       -1.81877
H         -5.45945        3.64739       -0.07218
H         -3.90073       -0.00706       -0.78889
C         -5.22594        1.72072       -1.06772
C         -4.56629        0.64442        1.16060
H         -3.24831        4.36676       -0.21432
H         -6.23181        1.46834       -0.70110
H         -5.20666        1.41133       -2.12327
H         -5.42898       -0.02385        1.21579
H         -3.74508        0.18616        1.71552
H         -4.83277        1.56975        1.67439
C         -1.15783       -3.74473        1.14344
C         -0.27106       -3.44861        0.07704
C          0.03907       -2.12164       -0.16473
C         -0.41684       -1.12457        0.65518
C         -1.19390       -1.41338        1.74575
C         -1.56038       -2.71735        2.03505
O         -1.66667       -5.06094        1.30725
C          0.34097       -4.52710       -0.83053
H          0.62608       -1.83922       -1.02101
H         -1.50991       -0.59956        2.37355
C         -2.39836       -3.00642        3.29074
C          4.59219        0.90644        0.09748
C          3.79361        1.61708       -0.83489
C          2.41586        1.53282       -0.71817
C          1.83523        0.71138        0.21156
C          2.60269       -0.06102        1.04429
C          3.98595       -0.01043        0.99338
O          5.99388        1.12997        0.15280
C          4.39592        2.46083       -1.96991
H          1.77179        2.09700       -1.37045
H          2.09975       -0.71406        1.73677
C          4.80645       -0.92856        1.91290
C         -0.57027       -4.74284       -2.04833
C          1.73543       -4.08581       -1.33302
C          0.54112       -5.84943       -0.06834
C         -3.88829       -3.04242        2.91836
C         -1.98019       -4.34390        3.92807
C         -2.18966       -1.90888        4.35873
C         -2.84248       -5.32975        0.55368
H         -1.56430       -5.06399       -1.74706
H         -0.67981       -3.81808       -2.61450
H         -0.15847       -5.49995       -2.71505
H          2.22743       -4.89623       -1.87026
H          1.67054       -3.24215       -2.01832
H          2.37533       -3.80079       -0.49876
H         -0.40660       -6.26862        0.25891
H          1.03111       -6.59326       -0.69611
H          1.15841       -5.69214        0.81558
H         -4.09644       -3.82831        2.19735
H         -4.50599       -3.22279        3.79779
H         -4.19905       -2.09675        2.47644
H         -2.53129       -4.52806        4.84993
H         -2.17178       -5.17840        3.25761
H         -0.91637       -4.34115        4.16320
H         -1.12985       -1.76840        4.56991
H         -2.60763       -0.95444        4.04130
H         -2.68323       -2.17908        5.29200
H         -3.62307       -5.69861        1.21899
H         -3.18771       -4.42541        0.05094
H         -2.63793       -6.10213       -0.18717
C          6.37874        2.20135        1.00475
C          3.45407        2.47070       -3.19634
C          4.58888        3.90581       -1.48664
C          5.73828        1.87449       -2.44393
C          5.11176       -0.19206        3.22581
C          4.02140       -2.21840        2.24398
C          6.11636       -1.36286        1.23055
H          3.18525        1.45520       -3.48622
H          2.53713        3.02307       -2.99700
H          3.93470        2.94704       -4.05047
H          5.26237        3.95025       -0.63417
H          5.00510        4.52942       -2.27743
H          3.63744        4.33969       -1.17999
H          6.13215        2.43269       -3.29289
H          6.48582        1.90482       -1.65529
H          5.61607        0.83549       -2.74817
H          5.68359       -0.82441        3.90450
H          5.68694        0.71272        3.04540
H          4.18920        0.09642        3.72911
H          3.68049       -2.70921        1.33312
H          4.64846       -2.92376        2.78883
H          3.15382       -2.01345        2.86954
H          6.76446       -0.51119        1.03860
H          5.90955       -1.84729        0.27682
H          6.66983       -2.06403        1.85464
H          5.50276        2.64127        1.48308
H          7.06326        1.83178        1.76811
H          6.89773        2.96340        0.42374
