105
-153.05926144
Cl        -1.16343        1.91054        2.89594
Pd        -1.07536        0.96734        0.86322
P         -1.13577        0.17694       -1.36138
N         -1.79436       -1.44245       -1.18422
C         -0.89639       -2.52054       -1.31698
C         -0.02839       -2.92590       -0.26526
C          1.00891       -3.83832       -0.52695
C          1.95131       -4.19488        0.59745
C          2.85198       -5.40773        0.31305
C          3.40261       -5.36231       -1.11597
C          2.25668       -5.35634       -2.13959
C          1.15569       -4.38240       -1.80475
C          0.25848       -4.02612       -2.80547
C         -0.74058       -3.11557       -2.57355
H         -1.39657       -2.80813       -3.36908
H          0.37189       -4.45940       -3.78474
H          2.64270       -5.12590       -3.14092
H          4.00765       -4.45558       -1.24245
H          3.67127       -5.46545        1.04348
H          2.57207       -3.31753        0.81568
C         -0.21856       -2.41420        1.11467
C          0.61537       -1.37103        1.60834
C          0.48060       -0.99590        2.94896
C         -0.46457       -1.57399        3.75470
C         -1.32012       -2.55808        3.27308
C         -2.37072       -3.10974        4.20507
C         -3.04257       -4.39851        3.70367
C         -3.36130       -4.30397        2.20813
C         -2.08028       -4.07285        1.39229
C         -1.19497       -2.98625        1.94955
H         -1.50042       -5.00194        1.33948
H         -4.05397       -3.47020        2.03739
H         -3.95158       -4.61645        4.28199
H         -3.13152       -2.33567        4.36205
H         -0.57177       -1.24509        4.77450
H          1.09662       -0.20553        3.33265
N          1.39404       -0.61483        0.72584
P          1.26844        1.10957        0.96723
C          1.86796        2.04613       -0.42931
C          1.19656        3.18143       -0.81718
C          1.65581        3.90980       -1.89928
C          2.79177        3.50802       -2.58976
C          3.46736        2.37121       -2.16465
C          3.00213        1.63777       -1.08796
H          3.51260        0.74565       -0.76098
H          4.35365        2.05703       -2.68877
C          3.29083        4.30106       -3.74686
H          1.13552        4.79869       -2.21271
H          0.33285        3.50331       -0.25709
C          2.16462        1.63816        2.42507
C          3.26053        0.90421        2.81326
C          3.98765        1.28946        3.92554
C          3.62776        2.42081        4.64560
C          2.51950        3.14951        4.23459
C          1.79398        2.76226        3.12280
H          0.93131        3.32445        2.80334
H          2.22502        4.02099        4.79400
C          4.38989        2.82172        5.86056
H          4.83899        0.71121        4.24162
H          3.53417        0.02748        2.24716
H          1.15293       -0.71424       -0.24885
H         -2.25313       -1.28522       -0.29322
C          0.17641        0.23668       -2.60487
C          1.17216       -0.71026       -2.68326
C          2.15124       -0.61557       -3.65351
C          2.14689        0.43090       -4.56335
C          1.12687        1.36804       -4.48916
C          0.15304        1.27155       -3.51208
H         -0.63186        2.00742       -3.45873
H          1.10348        2.17972       -5.19603
C          3.19844        0.52416       -5.61318
H          2.92515       -1.36185       -3.71427
H          1.16763       -1.55863       -2.02246
C         -2.46914        1.23685       -1.93554
C         -3.57007        0.63958       -2.49857
C         -4.62082        1.41797       -2.95036
C         -4.56919        2.80139       -2.84355
C         -3.45159        3.38497       -2.26168
C         -2.40357        2.60429       -1.81096
H         -1.53313        3.05667       -1.36627
H         -3.40899        4.45599       -2.16042
C         -5.71089        3.64061       -3.30139
H         -5.49022        0.95383       -3.38362
H         -3.60402       -0.43587       -2.57001
Cl        -3.27430        0.47516        0.92920
H          1.82329       -6.36070       -2.21568
H          2.27310       -6.33001        0.44816
H          4.08762       -6.20256       -1.29792
H          1.36365       -4.36877        1.50779
H         -3.89016       -5.20354        1.86289
H         -2.33672       -3.82869        0.35406
H         -1.91625       -3.27754        5.18987
H         -2.37253       -5.24993        3.87752
H          2.46295        4.67992       -4.34790
H          3.87936        5.15428       -3.40703
H          3.92194        3.69518       -4.39848
H          4.37322        3.90402        5.99621
H          3.96273        2.36391        6.75380
H          5.43397        2.51338        5.79061
H          4.18156        0.28851       -5.20311
H          2.99626       -0.17325       -6.42721
H          3.24839        1.52858       -6.03582
H         -6.23459        3.17198       -4.13575
H         -6.42912        3.78975       -2.49407
H         -5.36980        4.62191       -3.63424
