59
-75.80013126
Cl         1.67331        0.51911        2.33975
P          1.58931       -0.01895       -0.83458
P         -1.56976       -0.14301       -0.76088
C          0.60940        0.04791       -2.39937
H          0.36267        1.09171       -2.60700
H          1.23481       -0.30941       -3.22346
C         -0.64005       -0.77017       -2.22880
H         -0.39330       -1.82085       -2.05846
H         -1.29260       -0.72125       -3.10598
C          2.67097       -1.52199       -0.82498
H          2.55931       -1.99260       -1.80927
C          2.88255        1.29798       -0.69805
H          2.91159        1.58282        0.36092
C         -3.08089       -1.12814       -0.33319
H         -3.07439       -1.21771        0.76068
C         -2.37724        1.46197       -1.18680
H         -1.82615        1.90816       -2.02357
C          4.09076       -0.94830       -0.65253
H          4.38087       -1.03738        0.40327
H          4.82090       -1.55365       -1.21055
C          4.16852        0.54410       -1.07789
H          4.31052        0.61140       -2.16555
H          5.04706        1.03631       -0.63300
C         -4.25609       -0.23358       -0.79512
H         -4.96028       -0.83520       -1.38699
H         -4.83158        0.10463        0.07893
C         -3.78470        1.00151       -1.61437
H         -4.50113        1.82931       -1.51228
H         -3.77744        0.74739       -2.68524
C          2.24889       -2.48679        0.27598
H          1.17784       -2.70595        0.17155
H          2.34405       -1.97923        1.24543
C          2.58468        2.52283       -1.55391
H          3.47137        3.17175       -1.57304
H          2.44003        2.20381       -2.59413
C         -3.06552       -2.52066       -0.95268
H         -4.06734       -2.96478       -0.86874
H         -2.88101       -2.42737       -2.03070
C         -2.36075        2.39417        0.02069
H         -2.95338        1.93781        0.82512
H         -1.33871        2.45030        0.41976
C          3.04899       -3.78073        0.27552
H          2.94531       -4.30719       -0.67516
H          2.72601       -4.46202        1.06598
H          4.11340       -3.58961        0.42288
C          1.37774        3.30640       -1.06030
H          1.16214        4.17174       -1.69106
H          1.53344        3.67070       -0.04305
H          0.48267        2.68439       -1.03966
C         -2.04083       -3.44148       -0.30644
H         -2.00955       -4.42290       -0.78502
H         -2.26372       -3.59789        0.75078
H         -1.03758       -3.01864       -0.35620
C         -2.86943        3.79509       -0.28822
H         -2.81921        4.44913        0.58530
H         -2.28053        4.26098       -1.08066
H         -3.90734        3.78147       -0.62410
Cl        -1.49001       -0.23566        2.49729
Pd         0.04350        0.01664        0.88195
