111
-148.55149906
P         -2.57262        1.95266        1.07583
P          0.12935        0.45303        0.45955
C         -1.46061        1.51569        2.44193
C         -0.24652        0.92998        2.15657
C         -3.49718        3.51514        1.44490
C         -2.85489        4.73699        0.82560
C         -1.80876        1.76678        3.75430
H         -2.76756        2.20306        3.97945
C         -0.93271        1.43991        4.77506
H         -1.20459        1.63622        5.79937
C          0.28783        0.86158        4.48409
H          0.96848        0.60497        5.27911
C          0.62970        0.60024        3.16973
H          1.56831        0.12804        2.92569
Pd        -1.34284        1.66482       -0.87106
Cl        -2.72827        3.09827       -1.88346
Cl        -0.04532        1.07822       -2.60975
C         -4.91159        3.18492        0.93704
C         -3.99424        0.78959        0.82685
H         -1.82429        4.85831        1.16691
H         -2.83211        4.65930       -0.26098
H         -3.40496        5.64686        1.07623
H         -4.97761        3.45855       -0.12520
H         -5.66050        3.80641        1.45155
H         -3.96500        0.49639       -0.23119
C         -5.22857        1.67078        1.10567
C         -3.87270       -0.42287        1.72393
H         -3.51056        3.61203        2.53766
H         -5.57089        1.48329        2.13253
H         -6.06644        1.37196        0.45793
H         -4.72284       -1.09801        1.60171
H         -2.96238       -0.98516        1.50728
H         -3.83160       -0.12514        2.77338
C         -1.24248       -3.85329       -0.15197
C         -1.01597       -3.36501        1.16019
C         -0.58222       -2.05870        1.30846
C         -0.43916       -1.23244        0.22485
C         -0.74687       -1.67294       -1.03397
C         -1.19474       -2.96299       -1.25471
O         -1.47978       -5.23758       -0.36322
C         -1.20450       -4.23702        2.41115
H         -0.34467       -1.66726        2.28149
H         -0.61802       -0.98671       -1.85154
C         -1.59753       -3.37504       -2.67899
C          4.54782        0.62759       -0.61325
C          4.01511       -0.52022        0.02760
C          2.66319       -0.53369        0.32697
C          1.87355        0.55982        0.08451
C          2.40532        1.71165       -0.43159
C          3.74848        1.79033       -0.76196
O          5.86630        0.59854       -1.14055
C          4.86305       -1.75680        0.36430
H          2.19961       -1.41351        0.73942
H          1.74580        2.54587       -0.59778
C          4.30212        3.10982       -1.32190
C         -2.34835       -5.24784        2.21227
C          0.10799       -4.97395        2.71822
C         -1.57878       -3.36863        3.63438
C         -0.35970       -3.89345       -3.42634
C         -2.69693       -4.45228       -2.65731
C         -2.17087       -2.16418       -3.45144
C         -0.30110       -5.99628       -0.60331
H         -2.52438       -5.82427        3.12013
H         -3.27314       -4.73400        1.95181
H         -2.12170       -5.95137        1.41495
H          0.91808       -4.26438        2.88572
H          0.00959       -5.59132        3.61076
H          0.39952       -5.62006        1.89376
H         -0.75407       -2.72769        3.94263
H         -2.44033       -2.73878        3.41501
H         -1.83264       -3.99485        4.48935
H         -0.61182       -4.18224       -4.44634
H          0.41094       -3.12434       -3.47376
H          0.06827       -4.75967       -2.92724
H         -2.34416       -5.37100       -2.19572
H         -3.56183       -4.10590       -2.09253
H         -3.02640       -4.69638       -3.66693
H         -2.97146       -1.68770       -2.88617
H         -1.40637       -1.41673       -3.65750
H         -2.57921       -2.47606       -4.41235
H          0.58124       -5.35747       -0.54644
H         -0.22254       -6.79195        0.13742
H         -0.35439       -6.45475       -1.59054
C          5.94206        0.13411       -2.48270
C          4.82270       -2.73743       -0.81767
C          6.31733       -1.36415        0.68134
C          4.30726       -2.47331        1.61679
C          3.52881        4.31627       -0.74254
C          5.78094        3.30088       -0.93916
C          4.14340        3.11572       -2.85006
H          5.40384       -3.63356       -0.60161
H          3.79811       -3.04231       -1.03004
H          5.22634       -2.28465       -1.72007
H          6.80642       -0.92066       -0.18224
H          6.35021       -0.63794        1.49283
H          6.90187       -2.23387        0.98032
H          4.97805       -3.27079        1.93571
H          4.19911       -1.77529        2.44660
H          3.33771       -2.93044        1.42417
H          3.99961        5.25429       -1.03592
H          2.50206        4.34848       -1.10386
H          3.50958        4.27771        0.34629
H          6.40847        2.53096       -1.38083
H          6.15309        4.26573       -1.28275
H          5.90640        3.25422        0.14205
H          4.69456        2.29744       -3.30698
H          4.50947        4.04875       -3.27758
H          3.09556        3.00426       -3.12807
H          6.38727        0.90461       -3.11194
H          6.57640       -0.75089       -2.52893
H          4.94717       -0.11108       -2.85669
