111
-148.55592547
P         -2.73930        1.82454       -0.25820
P          0.13275        0.61706        0.25545
C         -1.88113        2.18100        1.30071
C         -0.60113        1.70614        1.49017
C         -3.77797        3.25494       -0.80682
C         -3.09263        4.07944       -1.87442
C         -2.49265        2.92069        2.29298
H         -3.50075        3.27360        2.15156
C         -1.81413        3.18978        3.46925
H         -2.29112        3.76758        4.24403
C         -0.52864        2.71752        3.65304
H         -0.00208        2.92464        4.57011
C          0.07812        1.96770        2.66173
H          1.07296        1.57305        2.79656
Pd        -1.11533        0.96665       -1.66224
Cl        -2.54834        1.26540       -3.36219
Cl         0.46073       -0.05028       -2.89634
C         -5.08131        2.56647       -1.25067
C         -4.03156        0.50247       -0.14504
H         -3.71274        4.92295       -2.18644
H         -2.13743        4.47301       -1.51899
H         -2.88859        3.47804       -2.76061
H         -5.00443        2.32258       -2.31937
H         -5.93143        3.26054       -1.16509
H         -3.81111       -0.20631       -0.95461
C         -5.33904        1.26423       -0.43879
C         -3.99819       -0.19039        1.20002
H         -3.96152        3.86591        0.08589
H         -5.82072        1.51915        0.51513
H         -6.05279        0.61082       -0.96296
H         -4.14876        0.52697        2.00888
H         -4.77948       -0.94995        1.27836
H         -3.03659       -0.67790        1.37017
C         -1.26435       -3.60783        1.22205
C         -0.86108       -3.28436       -0.09855
C         -0.43382       -1.99369       -0.35305
C         -0.34411       -1.06506        0.64899
C         -0.62231       -1.40509        1.94652
C         -1.04482       -2.68222        2.27455
O         -1.92809       -4.83630        1.48110
C         -0.93263       -4.28666       -1.26012
H         -0.17911       -1.68264       -1.35070
H         -0.52719       -0.64695        2.70389
C         -1.29780       -3.02480        3.75050
C          4.66607        0.87653       -0.03306
C          3.86587        1.80011       -0.75385
C          2.48799        1.69199       -0.65678
C          1.91111        0.76082        0.16565
C          2.67976       -0.06430        0.94433
C          4.06263       -0.00677        0.89830
O          6.06501        0.81034       -0.26981
C          4.46689        2.88099       -1.66600
H          1.84154        2.32460       -1.24043
H          2.17876       -0.77194        1.58240
C          4.87814       -0.92251        1.82458
C         -2.30696       -4.17597       -1.93794
C          0.16066       -3.98239       -2.30998
C         -0.69558       -5.72582       -0.76836
C         -2.74132       -2.64916        4.11860
C         -1.05055       -4.51905        4.02586
C         -0.33252       -2.23423        4.66334
C         -3.34379       -4.76071        1.36719
H         -2.47041       -3.16605       -2.31374
H         -2.38492       -4.86560       -2.77795
H         -3.10981       -4.40315       -1.24055
H         -0.02836       -3.04452       -2.83002
H          1.14238       -3.92246       -1.84099
H          0.19832       -4.76493       -3.06737
H         -0.68397       -6.42784       -1.60172
H          0.25860       -5.80094       -0.24789
H         -1.47579       -6.04402       -0.08146
H         -3.45808       -3.18859        3.50380
H         -2.95089       -2.88073        5.16256
H         -2.91242       -1.58332        3.96902
H         -0.04246       -4.80265        3.72530
H         -1.16556       -4.74668        5.08532
H         -1.75005       -5.14498        3.47764
H         -0.41946       -2.56610        5.69769
H          0.70144       -2.37898        4.35107
H         -0.54777       -1.16682        4.65161
H         -3.80282       -5.02396        2.31996
H         -3.64971       -3.75308        1.08275
H         -3.68829       -5.47043        0.61519
C          6.43545       -0.09602       -1.30131
C          5.82607        3.36836       -1.13185
C          4.62563        2.31402       -3.08502
C          3.54127        4.11721       -1.73067
C          6.21301       -0.26537        2.21964
C          4.10674       -1.19867        3.13579
C          5.13446       -2.26210        1.11754
H          6.21906        4.18040       -1.74311
H          5.72865        3.73027       -0.10886
H          6.56350        2.56976       -1.13372
H          5.03660        3.06292       -3.76149
H          5.28916        1.45276       -3.09374
H          3.66232        1.99292       -3.48072
H          3.30170        4.47476       -0.72957
H          4.02207        4.93239       -2.27098
H          2.60950        3.89694       -2.24938
H          6.04021        0.70488        2.68410
H          6.76193       -0.88709        2.92649
H          6.85129       -0.11097        1.35330
H          3.22177       -1.80929        2.96263
H          4.73250       -1.73846        3.84620
H          3.79455       -0.26643        3.60586
H          5.70116       -2.93884        1.75654
H          5.69510       -2.12139        0.19667
H          4.19337       -2.74823        0.86111
H          5.55113       -0.58039       -1.71741
H          6.96054        0.44196       -2.09037
H          7.10948       -0.85218       -0.89920
