111
-148.55471956
P         -2.56011        2.06861        0.91634
P          0.10858        0.39617        0.51333
C         -1.47845        1.73733        2.33365
C         -0.29966        1.04853        2.14412
C         -3.34353        3.74216        1.01777
C         -2.70929        4.70920        0.04206
C         -1.83189        2.15993        3.59912
H         -2.76434        2.67968        3.74660
C         -0.99546        1.89931        4.67097
H         -1.27066        2.22912        5.65947
C          0.18918        1.21515        4.47644
H          0.83897        1.01047        5.31133
C          0.53619        0.78409        3.20859
H          1.44915        0.23413        3.04070
Pd        -1.31605        1.50317       -0.93846
Cl        -2.94155        2.32362       -2.24323
Cl         0.08056        0.87286       -2.58691
C         -4.83018        3.44019        0.75153
C         -4.06857        0.99878        0.86923
H         -1.64004        4.82407        0.23546
H         -2.81965        4.35370       -0.98332
H         -3.17326        5.69661        0.09978
H         -5.02839        3.56752       -0.32168
H         -5.46927        4.17819        1.25983
H         -4.15016        0.63430       -0.16365
C         -5.20508        1.99149        1.17702
C         -3.95598       -0.15690        1.83954
H         -3.20410        4.08993        2.04918
H         -5.41226        1.96852        2.25579
H         -6.13793        1.66815        0.69053
H         -3.80751        0.20543        2.85849
H         -4.85767       -0.77366        1.83353
H         -3.10682       -0.79743        1.59224
C         -1.17073       -3.95774        0.12163
C         -1.12520       -3.35922        1.40742
C         -0.72165       -2.03780        1.50296
C         -0.44900       -1.30140        0.38038
C         -0.60163       -1.84392       -0.86752
C         -0.99555       -3.15868       -1.03662
O         -1.35114       -5.36102       -0.00254
C         -1.47025       -4.13240        2.68982
H         -0.60370       -1.56607        2.46228
H         -0.39133       -1.21668       -1.71597
C         -1.18777       -3.69671       -2.46251
C          4.48350        0.77375       -0.68754
C          3.82856       -0.48075       -0.77651
C          2.49837       -0.55061       -0.40146
C          1.84394        0.54075        0.10620
C          2.49826        1.73087        0.28555
C          3.83253        1.86924       -0.06303
O          5.77400        0.94230       -1.25627
C          4.51448       -1.74666       -1.31350
H          1.94500       -1.46522       -0.52059
H          1.94395        2.55870        0.69332
C          4.53993        3.20700        0.20503
C         -0.20228       -4.80895        3.23208
C         -2.02135       -3.17861        3.77429
C         -2.56127       -5.18537        2.42332
C         -1.67481       -2.57196       -3.40550
C          0.15431       -4.22987       -2.98713
C         -2.25434       -4.80583       -2.50052
C         -0.13627       -6.10034       -0.01850
H          0.56698       -4.06806        3.44876
H         -0.41370       -5.35522        4.15098
H          0.20865       -5.51151        2.51117
H         -2.86009       -2.59849        3.39119
H         -2.37251       -3.74000        4.63981
H         -1.25916       -2.48721        4.13044
H         -2.85263       -5.68975        3.34429
H         -3.44853       -4.71873        1.99661
H         -2.21672       -5.94586        1.72689
H         -2.55628       -2.07825       -2.99727
H         -0.90576       -1.81837       -3.56776
H         -1.93870       -2.97381       -4.38336
H          0.90340       -3.43849       -3.00150
H          0.53341       -5.03197       -2.35820
H          0.05192       -4.61570       -4.00102
H         -3.19699       -4.44512       -2.09029
H         -2.43475       -5.14127       -3.52149
H         -1.94818       -5.67185       -1.91933
H          0.71748       -5.43307        0.10697
H         -0.14579       -6.83443        0.78707
H         -0.04358       -6.63420       -0.96405
C          5.75689        1.35496       -2.61717
C          4.31118       -1.82532       -2.83431
C          6.01590       -1.75112       -0.97473
C          3.90354       -3.01399       -0.67098
C          3.93575        3.90459        1.44508
C          6.03688        2.99573        0.49632
C          4.36126        4.12859       -1.01102
H          3.24958       -1.84712       -3.07969
H          4.74755       -0.96497       -3.33575
H          4.77161       -2.72382       -3.24432
H          6.48908       -2.67608       -1.30342
H          6.53459       -0.92691       -1.45770
H          6.16671       -1.65615        0.10008
H          4.47228       -3.90101       -0.94908
H          3.91034       -2.93949        0.41613
H          2.87762       -3.17895       -0.99704
H          2.91523        4.23822        1.26332
H          3.93008        3.23306        2.30328
H          4.51669        4.78652        1.71405
H          6.52351        3.93728        0.74961
H          6.17201        2.30866        1.33096
H          6.55437        2.58003       -0.36456
H          4.79405        3.68888       -1.90622
H          4.84051        5.09292       -0.84424
H          3.30418        4.30589       -1.20773
H          4.72989        1.47211       -2.96561
H          6.28624        2.30219       -2.71884
H          6.26709        0.61316       -3.23132
