72
-108.39755708
Cl        -1.84330        0.59755        2.71687
Cl         1.03511       -0.39627        2.78752
P          1.12999       -1.13395       -0.29239
P         -2.27225        0.10930       -0.37092
C         -3.26248       -1.50125       -0.21107
C         -3.62768       -1.72354        1.25757
C         -4.52363       -1.42015       -1.06390
C         -3.34629        1.64727       -0.04961
C         -4.13967        2.01257       -1.31089
C         -1.45414        0.47005       -2.03712
C         -1.53344       -0.64750       -3.05649
C          1.13356        0.23409       -1.49054
C         -0.03009        0.99376       -1.95315
C          0.48286        2.07863       -2.79217
C          1.92825        1.96697       -2.84914
C          2.32931        0.79560       -2.09273
C         -2.39828       -2.67310       -0.65937
H         -2.73952       -1.73460        1.88940
H         -4.29866       -0.95767        1.63702
H         -5.20991       -0.66108       -0.69235
H         -5.05735       -2.37186       -1.05033
C         -4.32340        1.45885        1.10709
H         -4.91243        2.74649       -1.07599
H         -4.63184        1.14359       -1.74448
H         -2.05435        1.30088       -2.41949
H         -0.88242       -1.46987       -2.76977
H         -1.18728       -0.30854       -4.03512
H         -2.54675       -1.02636       -3.18277
H         -0.12778        2.78896       -3.35273
H          2.59586        2.61069       -3.42680
Pd        -0.52046       -0.32212        1.14676
H          3.34718        0.43907       -1.92048
C         -2.36672        2.76289        0.28215
H         -3.50982        2.46466       -2.07621
H         -3.81764        1.12207        2.00923
H         -4.81428        2.40299        1.34745
H         -5.10956        0.74892        0.85709
H         -1.61006        2.86003       -0.49782
H         -2.88146        3.72137        0.37501
H         -1.86553        2.56424        1.22892
H         -4.13279       -2.68230        1.38582
H         -4.29199       -1.18694       -2.10195
H         -2.16502       -2.63068       -1.71992
H         -1.46558       -2.69812       -0.09823
H         -2.91086       -3.62053       -0.48438
C          2.78878       -1.22903        0.42464
C          3.16336       -2.09751        1.41947
C          4.50630       -1.84468        1.69965
C          4.89824       -0.83191        0.85951
O          3.85347       -0.44441        0.07116
H          2.52626       -2.81382        1.91197
H          5.11499       -2.34288        2.43647
H          5.88660       -0.39112        0.81763
C          0.75156       -2.72969       -1.03783
C          0.78790       -3.91558       -0.34649
C          0.43781       -4.92401       -1.24543
C          0.20171       -4.30979       -2.45070
O          0.38625       -2.96138       -2.33577
H          1.03051       -4.03712        0.69667
H          0.36764       -5.97866       -1.03482
H         -0.09121       -4.80677       -3.36721
Fe         1.34195        2.10051       -0.91981
C          3.01456        2.82620        0.00842
C          2.22880        1.98155        0.88747
C          0.92268        2.58230        1.05977
C          0.86873        3.76784        0.22652
C          2.15630        3.91297       -0.42886
H          4.05142        2.65538       -0.29025
H          2.58131        1.07876        1.38934
H          0.14246        2.20977        1.72507
H          0.03303        4.46682        0.15333
H          2.44664        4.72826       -1.09557
