171
-217.83722687
P         -1.42399        0.32746       -0.35584
P          1.72131       -0.65430       -0.05597
C         -0.56848        1.17486       -1.69510
C          1.02631       -1.61340       -1.42207
C          0.20614        0.44575       -2.58913
C          0.88445        1.12801       -3.61841
C          0.72782        2.49894       -3.73714
C         -0.05180        3.20422       -2.84582
C         -0.69082        2.53772       -1.81901
C          1.14047       -2.98056       -1.33099
C          0.54220       -3.80045       -2.26676
C         -0.19333       -3.24180       -3.28861
C         -0.32428       -1.86873       -3.40351
C          0.31016       -1.03190       -2.46484
Cl         1.19094       -0.83059        3.17875
Cl        -1.90292       -1.31073        2.55574
C         -1.14915       -1.31609       -4.51296
C          1.74670        0.39717       -4.58790
H         -0.16207        4.27092       -2.95183
H         -1.28495        3.08735       -1.10842
H          1.70226       -3.41579       -0.52170
H          0.64106       -4.87106       -2.19056
H          1.22457        3.01510       -4.54096
H         -0.68055       -3.87502       -4.01094
C         -4.29974       -2.74610       -2.03326
C         -3.48995       -3.09956       -0.96050
C         -2.62105       -2.14032       -0.46164
C         -2.55611       -0.89130       -1.02434
C         -3.35050       -0.56323       -2.09553
C         -4.24607       -1.48776       -2.62147
H         -5.00649       -3.45945       -2.41242
H         -2.00631       -2.36366        0.39221
H         -3.25756        0.41773       -2.52698
C         -3.98154        3.38231        1.86497
C         -3.07144        2.63795        2.60430
C         -2.28093        1.72220        1.92559
C         -2.41088        1.53535        0.56963
C         -3.33827        2.26409       -0.13569
C         -4.13380        3.21265        0.49527
H         -4.59633        4.10872        2.36225
H         -1.57888        1.12935        2.48123
H         -3.43250        2.09353       -1.19336
C          4.98043       -2.98768        2.07663
C          5.33497       -1.87093        1.32890
C          4.32211       -1.17620        0.68180
C          3.01429       -1.58133        0.78398
C          2.68353       -2.68455        1.53093
C          3.66258       -3.41093        2.19630
H          5.74345       -3.54210        2.58981
H          4.55712       -0.30270        0.10039
H          1.64475       -2.95299        1.62140
C          3.14303        3.56333       -0.87685
C          2.13290        3.36844        0.05614
C          1.71377        2.06577        0.29255
C          2.26310        1.01896       -0.40904
C          3.24967        1.23119       -1.34047
C          3.72283        2.51559       -1.58126
H          3.49957        4.56190       -1.05058
H          0.95064        1.86045        1.02193
H          3.64688        0.38499       -1.87477
Pd        -0.12487       -0.57776        1.37662
C         -3.94515       -4.32005        1.18017
C         -3.53422       -4.48205       -0.29534
C         -2.13776       -5.12665       -0.37503
C         -4.54416       -5.41648       -0.98781
H         -4.00225       -5.28763        1.67827
H         -3.22925       -3.70642        1.72574
H         -4.92102       -3.84132        1.25735
H         -1.82623       -5.23699       -1.41327
H         -1.39067       -4.52036        0.13618
H         -2.13632       -6.11465        0.08481
H         -5.55486       -5.01266       -0.93193
H         -4.28681       -5.56281       -2.03673
H         -4.55431       -6.39629       -0.51044
C         -6.62626       -0.95273       -3.15243
C         -5.21922       -1.12038       -3.75224
C         -5.24373       -2.23214       -4.81988
C         -4.81602        0.19831       -4.44245
H         -6.63095       -0.16879       -2.39514
H         -7.35058       -0.68506       -3.92152
H         -6.96175       -1.87543       -2.67966
H         -5.61581       -3.17137       -4.41343
H         -5.89291       -1.95646       -5.65086
H         -4.24650       -2.41030       -5.22005
H         -3.80295        0.14018       -4.83884
H         -5.48522        0.41967       -5.27378
H         -4.86806        1.03902       -3.75174
C         -1.51683        3.06812        4.53738
C         -2.96422        2.73315        4.13400
C         -3.36544        1.37712        4.74492
C         -3.89193        3.82316        4.70366
H         -1.21216        4.02498        4.11568
H         -1.42090        3.13454        5.62091
H         -0.82008        2.30606        4.19058
H         -3.31872        1.40896        5.83317
H         -4.38213        1.11102        4.45687
H         -2.70443        0.58039        4.40554
H         -3.79506        3.88527        5.78752
H         -3.64423        4.80188        4.29301
H         -4.93624        3.60706        4.47913
C         -6.54972        3.87796        0.33349
C         -5.14832        4.06868       -0.27608
C         -5.21098        3.67292       -1.76472
C         -4.73364        5.54793       -0.17934
H         -7.29492        4.45372       -0.21519
H         -6.84300        2.82877        0.30123
H         -6.57955        4.20229        1.37287
H         -4.24703        3.81839       -2.25215
H         -5.50383        2.62942       -1.87865
H         -5.94289        4.28086       -2.29635
H         -5.42633        6.18469       -0.72935
H         -4.71814        5.88657        0.85606
H         -3.73644        5.69543       -0.59403
C          6.87982        0.08067        1.65207
C          6.78530       -1.38627        1.18991
C          7.21176       -1.49176       -0.28540
C          7.75310       -2.22852        2.04298
H          6.26042        0.73277        1.03745
H          6.54749        0.18029        2.68514
H          7.90559        0.44370        1.59046
H          6.57454       -0.88115       -0.92347
H          8.24001       -1.15663       -0.42030
H          7.14294       -2.52220       -0.63351
H          7.48454       -2.18431        3.09832
H          7.74906       -3.27171        1.72765
H          8.77434       -1.86014        1.94606
C          1.80561       -4.92351        3.05755
C          3.31925       -4.62842        3.06592
C          3.75141       -4.35002        4.51707
C          4.06051       -5.86563        2.52772
H          1.23986       -4.08085        3.45478
H          1.45154       -5.13303        2.04827
H          1.57744       -5.79264        3.67423
H          3.25006       -3.46214        4.90200
H          3.50119       -5.18839        5.16687
H          4.82576       -4.18353        4.58552
H          3.78105       -6.06094        1.49253
H          5.14046       -5.72720        2.56246
H          3.81922       -6.75114        3.11550
C          1.03397        5.61993       -0.18168
C          1.54858        4.56688        0.81721
C          2.64815        5.18323        1.70008
C          0.37182        4.14678        1.71769
H          0.24913        5.20190       -0.81013
H          0.61914        6.48152        0.34122
H          1.83095        5.97829       -0.83169
H          3.48488        5.53604        1.09803
H          2.26384        6.02973        2.26890
H          3.03128        4.44706        2.40654
H         -0.05140        5.01233        2.22685
H         -0.42424        3.68595        1.13391
H          0.69616        3.43931        2.48009
C          4.39475        3.75176       -3.66050
C          4.87721        2.79770       -2.55335
C          5.39741        1.50520       -3.21151
C          6.04029        3.44601       -1.77904
H          3.57193        3.30791       -4.21889
H          4.04652        4.69708       -3.24611
H          5.19819        3.97119       -4.36345
H          4.61304        1.00947       -3.78153
H          6.21606        1.72264       -3.89741
H          5.77155        0.80839       -2.46242
H          5.74154        4.39518       -1.33579
H          6.37790        2.79259       -0.97464
H          6.88811        3.63757       -2.43655
H         -2.13123       -1.78893       -4.52980
H          2.55785        1.03090       -4.94847
H         -0.67562       -1.49553       -5.47923
H         -1.30268       -0.24187       -4.40496
H          1.17069        0.07272       -5.45521
H          2.19503       -0.48555       -4.12932
