111
-148.55285571
P         -2.10093        2.55298       -0.19787
P         -0.21896        0.11924        0.55397
C         -1.78432        2.16599        1.54347
C         -0.99493        1.08359        1.86417
C         -1.52692        4.26296       -0.59876
C         -0.29292        4.21820       -1.47403
C         -2.31513        2.95280        2.54521
H         -2.91053        3.81322        2.28617
C         -2.06856        2.63824        3.87057
H         -2.48488        3.25001        4.65416
C         -1.28900        1.54279        4.18991
H         -1.09673        1.29828        5.22161
C         -0.74662        0.76467        3.18267
H         -0.12399       -0.08582        3.41324
Pd        -1.20312        0.80621       -1.42124
Cl        -2.17485        1.81954       -3.17512
Cl        -0.34179       -0.99772       -2.44407
C         -2.76342        4.90248       -1.25902
C         -3.89989        2.70372       -0.61447
H         -0.50119        3.69095       -2.40707
H          0.05192        5.22265       -1.73079
H          0.52756        3.69336       -0.97776
H         -2.67003        4.80406       -2.34929
H         -2.78760        5.98485       -1.06132
H         -4.02572        2.19448       -1.57915
C         -4.08258        4.22207       -0.79221
C         -4.78811        2.06922        0.43492
H         -1.30889        4.74663        0.36258
H         -4.40162        4.65579        0.16543
H         -4.90215        4.42875       -1.49723
H         -5.84324        2.14441        0.16217
H         -4.54738        1.01216        0.57041
H         -4.66456        2.55886        1.40153
C         -1.08324       -4.33855        0.80191
C          0.26268       -3.89471        0.74065
C          0.50093       -2.53261        0.67182
C         -0.52899       -1.63133        0.72931
C         -1.82368       -2.04992        0.88980
C         -2.13184       -3.39823        0.97254
O         -1.38324       -5.71855        0.65116
C          1.45531       -4.86239        0.69397
H          1.50073       -2.15573        0.54915
H         -2.59744       -1.30201        0.93338
C         -3.59293       -3.81475        1.20215
C          4.17012        1.23346        0.02705
C          3.54259        0.35599       -0.89331
C          2.20270        0.06536       -0.70790
C          1.51604        0.53310        0.38084
C          2.14486        1.29910        1.32719
C          3.48134        1.63927        1.19890
O          5.47021        1.73745       -0.24334
C          4.27349       -0.25429       -2.09920
H          1.65867       -0.51262       -1.43398
H          1.56911        1.64215        2.16822
C          4.15204        2.46774        2.30593
C          1.16205       -6.14552        1.49227
C          1.76920       -5.20749       -0.76986
C          2.70864       -4.21561        1.32714
C         -4.33493       -2.75309        2.04622
C         -4.30217       -3.94521       -0.15435
C         -3.67839       -5.14199        1.97742
C         -1.60806       -6.11653       -0.69560
H          2.03075       -6.80320        1.50991
H          0.89756       -5.90494        2.52141
H          0.33643       -6.70360        1.05801
H          1.99402       -4.30549       -1.33833
H          2.62840       -5.87412       -0.83891
H          0.92490       -5.69665       -1.24938
H          3.51769       -4.94093        1.41054
H          3.08365       -3.38775        0.72745
H          2.48898       -3.84303        2.32729
H         -5.32948       -3.10355        2.32127
H         -3.78973       -2.53827        2.96496
H         -4.46549       -1.82078        1.49888
H         -4.27231       -3.00044       -0.69674
H         -3.82611       -4.69822       -0.77765
H         -5.34661       -4.22712       -0.02372
H         -4.71381       -5.40277        2.19507
H         -3.24550       -5.96212        1.41033
H         -3.14092       -5.06943        2.92232
H         -2.61318       -6.52620       -0.79379
H         -1.49479       -5.26444       -1.36720
H         -0.89580       -6.89412       -0.97100
C          5.47841        2.93735       -1.00691
C          4.10224        0.66819       -3.31547
C          5.76777       -0.46674       -1.79665
C          3.68506       -1.64176       -2.44478
C          3.49560        2.18291        3.67621
C          5.64323        2.10922        2.44011
C          3.99264        3.96242        1.98887
H          4.60225        0.25626       -4.19161
H          3.04700        0.79410       -3.55702
H          4.51741        1.65484       -3.12382
H          6.27021       -0.95800       -2.62954
H          6.27551        0.47745       -1.61744
H          5.89483       -1.08728       -0.91018
H          2.66590       -1.56763       -2.82077
H          4.27605       -2.13090       -3.21867
H          3.68122       -2.28870       -1.56831
H          4.05076        2.66753        4.47906
H          2.47510        2.56053        3.72121
H          3.47591        1.11294        3.88179
H          6.10345        2.64959        3.26697
H          5.76642        1.04206        2.62168
H          6.19437        2.35953        1.53705
H          4.44535        4.57697        2.76658
H          2.93876        4.23058        1.91688
H          4.46407        4.21735        1.04286
H          6.00829        2.77211       -1.94479
H          4.45848        3.26125       -1.21804
H          6.00091        3.71797       -0.45415
