87
-129.18170932
P         -1.53652       -0.27794       -0.42609
P          1.72093        0.29896        0.24396
C         -1.09190        0.96896       -1.63960
C          1.52257       -0.80611       -1.17769
C          0.01042        0.73687       -2.45202
C          0.36444        1.70624       -3.41145
C         -0.40826        2.85061       -3.52648
C         -1.50321        3.05773       -2.71276
C         -1.84312        2.11130       -1.76617
C          2.14256       -2.02354       -1.01846
C          2.03688       -2.99652       -1.99347
C          1.29170       -2.74693       -3.12472
C          0.64062       -1.53776       -3.29840
C          0.76154       -0.53831       -2.31365
Cl         0.92969       -0.13182        3.36070
Cl        -1.64702       -1.88299        2.39311
H         -2.08926        3.95665       -2.81189
H         -2.69913        2.26006       -1.12928
H          2.70678       -2.21416       -0.11755
H          2.52684       -3.94763       -1.86448
H         -0.13748        3.58985       -4.26111
H          1.19555       -3.50513       -3.88336
C         -2.45531       -4.18602       -2.55147
C         -1.65563       -4.20649       -1.41697
C         -1.39574       -3.00602       -0.76775
C         -1.92210       -1.82767       -1.24231
C         -2.72438       -1.81658       -2.35908
C         -2.99401       -3.00246       -3.01688
H         -2.65271       -5.10883       -3.06981
C         -1.04752       -5.47379       -0.92911
H         -0.77838       -2.99713        0.11429
H         -3.12289       -0.88008       -2.71688
H         -3.61616       -3.00064       -3.89681
C         -5.16442        1.08976        1.96977
C         -5.23305       -0.06157        1.21106
C         -4.13425       -0.47070        0.47980
C         -2.97931        0.27534        0.50617
C         -2.90857        1.42166        1.26324
C         -3.99962        1.84365        2.01275
H         -6.01904        1.41043        2.54079
H         -6.13973       -0.64381        1.19248
H         -4.16999       -1.37471       -0.10582
H         -1.99970        1.99741        1.27209
C         -3.91974        3.08822        2.82471
C          6.07117       -0.05290        1.54907
C          5.75166        0.12636        0.21760
C          4.42734        0.23322       -0.16589
C          3.43388        0.15501        0.78295
C          3.75327       -0.02112        2.10775
C          5.07676       -0.12134        2.51456
H          7.10113       -0.14263        1.84994
H          6.53270        0.18057       -0.52299
H          4.16230        0.36620       -1.20310
H          2.96383       -0.08393        2.83473
C          5.41452       -0.34011        3.94754
C          0.81204        4.71863       -0.30865
C          1.68826        4.08959       -1.17084
C          1.97532        2.74782       -1.00401
C          1.37510        2.04623        0.01429
C          0.53317        2.67976        0.89964
C          0.23309        4.02791        0.74679
H          0.57651        5.76048       -0.44409
H          2.14061        4.64041       -1.97913
H          2.65288        2.24006       -1.67108
H          0.14198        2.13299        1.74076
C         -0.70797        4.71050        1.67508
Pd        -0.13551       -0.53338        1.43305
C          1.54970        1.52958       -4.29503
C         -0.18312       -1.33104       -4.52237
H          1.24255        1.30828       -5.31792
H          2.15710        2.43559       -4.31633
H          2.18711        0.71450       -3.95025
H          0.44849       -1.10990       -5.38354
H         -0.76497       -2.22421       -4.75423
H         -0.88617       -0.50694       -4.39761
H         -0.93454       -5.46156        0.15594
H         -1.66610       -6.33408       -1.18844
H         -0.06014       -5.62270       -1.36849
H         -2.97830        3.13451        3.37381
H         -3.98586        3.97176        2.18839
H         -4.72951        3.13876        3.55386
H          6.37214        0.11692        4.20086
H          4.65654        0.09512        4.60046
H          5.47900       -1.40576        4.17159
H         -0.76741        4.18789        2.63073
H         -0.38683        5.73330        1.87713
H         -1.71065        4.75065        1.24743
