111
-148.55078211
P         -2.25195        2.20825        0.92346
P          0.09648        0.12011        0.49775
C         -1.30676        1.60667        2.34834
C         -0.28233        0.70728        2.15532
C         -2.50300        4.03493        1.08093
C         -2.04339        4.75480       -0.16765
C         -1.59617        2.05569        3.62112
H         -2.39360        2.76598        3.76659
C         -0.85962        1.59438        4.69865
H         -1.08581        1.94367        5.69286
C          0.16440        0.68780        4.50146
H          0.73733        0.32801        5.34019
C          0.45401        0.24196        3.22408
H          1.24945       -0.46603        3.05033
Pd        -1.28653        1.27427       -0.95886
Cl        -2.86796        2.32969       -2.14954
Cl        -0.27009        0.26987       -2.68542
C         -4.01556        4.15750        1.35959
C         -4.01207        1.63400        0.89361
H         -2.62197        4.42895       -1.03335
H         -2.16818        5.83644       -0.07651
H         -0.99083        4.55134       -0.37939
H         -4.39033        5.10184        0.93851
H         -4.19262        4.22665        2.44296
H         -4.12662        1.03243       -0.01822
C         -4.80897        2.95025        0.78554
C         -4.34302        0.80480        2.11592
H         -1.91172        4.36082        1.94757
H         -5.77372        2.83909        1.30156
H         -5.05739        3.14864       -0.26752
H         -5.36955        0.43212        2.08174
H         -3.67385       -0.05419        2.20629
H         -4.23904        1.39932        3.02498
C         -1.22437       -4.22655        0.16880
C         -2.15078       -3.17209       -0.03269
C         -1.70084       -1.86979        0.10633
C         -0.37780       -1.59838        0.34050
C          0.53986       -2.61087        0.44442
C          0.15551       -3.93631        0.32329
O         -1.68203       -5.56863        0.25170
C         -3.62585       -3.41550       -0.38894
H         -2.38759       -1.04375        0.03853
H          1.56624       -2.35116        0.63531
C          1.22662       -5.03702        0.38320
C          4.34794        1.16843       -0.76274
C          3.63729        2.01222        0.12870
C          2.36411        1.62972        0.51877
C          1.77335        0.50510        0.00287
C          2.41042       -0.24658       -0.94931
C          3.68750        0.07433       -1.37744
O          5.72457        1.40132       -1.02444
C          4.22347        3.32312        0.67660
H          1.80832        2.21227        1.23353
H          1.88265       -1.08304       -1.37246
C          4.34082       -0.76012       -2.49037
C         -4.17525       -2.25326       -1.24840
C         -3.79100       -4.70141       -1.21905
C         -4.45454       -3.50560        0.90116
C          0.83510       -6.23965       -0.49487
C          2.57841       -4.51317       -0.15185
C          1.41560       -5.48452        1.84034
C         -2.04798       -5.97634        1.56397
H         -5.17235       -2.48497       -1.62188
H         -4.25639       -1.33150       -0.67516
H         -3.53062       -2.06715       -2.10708
H         -4.82705       -4.83861       -1.52761
H         -3.17252       -4.66079       -2.11505
H         -3.49774       -5.58102       -0.65164
H         -4.11656       -4.32526        1.53070
H         -4.36798       -2.58622        1.47966
H         -5.50897       -3.66529        0.67732
H          0.65341       -5.92202       -1.52108
H          1.62504       -6.99020       -0.50656
H         -0.06907       -6.72020       -0.12953
H          3.00711       -3.75817        0.50540
H          3.30513       -5.32187       -0.22623
H          2.45832       -4.07966       -1.14417
H          2.17927       -6.25824        1.91534
H          1.72228       -4.64539        2.46435
H          0.49194       -5.88324        2.25289
H         -1.88916       -5.16326        2.27345
H         -3.09723       -6.27067        1.57693
H         -1.44941       -6.83818        1.85859
C          6.60680        0.75675       -0.11454
C          5.18714        3.96741       -0.33672
C          3.10005        4.35171        0.94237
C          4.95344        3.04100        1.99829
C          3.26630       -1.38672       -3.40817
C          5.23598        0.12039       -3.38105
C          5.16879       -1.89163       -1.86339
H          5.54928        4.92992        0.02365
H          6.05408        3.33698       -0.51716
H          4.68761        4.12859       -1.29145
H          2.47873        4.48409        0.05691
H          2.45950        4.04639        1.76843
H          3.51896        5.32278        1.20529
H          5.37591        3.95546        2.41392
H          4.26843        2.62051        2.73423
H          5.76376        2.32973        1.85738
H          2.68901       -2.15046       -2.88943
H          2.57751       -0.62586       -3.77443
H          3.72636       -1.86577       -4.27204
H          4.66498        0.94962       -3.79737
H          6.06739        0.53718       -2.81757
H          5.65273       -0.45415       -4.20787
H          4.54252       -2.52657       -1.23802
H          5.96671       -1.49724       -1.23935
H          5.62184       -2.51649       -2.63265
H          6.04502        0.14369        0.59132
H          7.30463        0.12874       -0.66825
H          7.18255        1.50413        0.43082
