171
-217.83567567
P         -1.50657        0.16959       -0.27729
P          1.69288       -0.67051        0.26929
C         -0.61182        0.86645       -1.67985
C          0.94975       -1.80682       -0.92294
C          0.20008        0.02903       -2.43378
C          0.92005        0.56423       -3.51875
C          0.77029        1.90720       -3.82659
C         -0.05044        2.72185       -3.07426
C         -0.73941        2.19569       -1.99957
C          1.00233       -3.13116       -0.55789
C          0.41189       -4.09649       -1.35020
C         -0.25052       -3.72088       -2.49894
C         -0.32844       -2.39116       -2.87727
C          0.29415       -1.41024       -2.08235
Cl         0.99806       -0.54642        3.44528
Cl        -2.12404       -1.27309        2.61505
C         -1.09708       -2.03608       -4.10178
C          1.82053       -0.29890       -4.33262
H         -0.15026        3.76643       -3.32025
H         -1.37878        2.82564       -1.40638
H          1.50259       -3.40642        0.35907
H          0.46071       -5.13468       -1.06504
H          1.30393        2.31502       -4.66812
H         -0.72943       -4.46569       -3.11215
C         -4.48043       -2.85934       -1.87237
C         -3.76507       -3.17365       -0.72305
C         -2.86136       -2.23587       -0.24524
C         -2.67198       -1.04587       -0.89930
C         -3.37325       -0.75927       -2.04525
C         -4.30083       -1.66158       -2.55359
H         -5.21098       -3.55371       -2.24191
H         -2.31761       -2.42574        0.66233
H         -3.17885        0.17023       -2.55105
C         -4.05274        3.46411        1.58796
C         -4.18372        3.16046        0.23876
C         -3.39409        2.14239       -0.27837
C         -2.48747        1.47492        0.50875
C         -2.37843        1.79165        1.84202
C         -3.16275        2.78478        2.41043
H         -4.66304        4.23961        2.00883
H         -3.48817        1.87173       -1.31553
H         -1.69211        1.25049        2.46607
C          5.71067       -2.43446        1.39951
C          4.88669       -1.98062        2.42181
C          3.65013       -1.45666        2.07154
C          3.25986       -1.40272        0.75828
C          4.08404       -1.86297       -0.23965
C          5.33627       -2.38371        0.06270
H          6.67321       -2.83998        1.65207
H          2.97138       -1.09233        2.81975
H          3.73723       -1.81528       -1.25805
C          2.82620        3.59770       -0.77611
C          1.78769        3.39705        0.12630
C          1.41486        2.08887        0.40846
C          2.05468        1.03194       -0.19685
C          3.08589        1.25253       -1.07659
C          3.49613        2.54285       -1.38426
H          3.13777        4.60102       -0.99281
H          0.63641        1.89713        1.12528
H          3.60059        0.40871       -1.50208
Pd        -0.24809       -0.56870        1.58888
C         -4.97858       -5.41027       -0.64144
C         -3.95651       -4.48677        0.04810
C         -4.46031       -4.16854        1.46827
C         -2.60872       -5.22695        0.13121
H         -5.95993       -4.93934       -0.69500
H         -4.65905       -5.66194       -1.65260
H         -5.09104       -6.34295       -0.08876
H         -3.74353       -3.55650        2.01448
H         -5.40259       -3.62260        1.42881
H         -4.62203       -5.08240        2.03945
H         -2.71326       -6.17011        0.66703
H         -2.22937       -5.44562       -0.86657
H         -1.86005       -4.63021        0.65097
C         -5.13525       -2.49784       -4.78452
C         -5.16840       -1.33154       -3.77768
C         -4.67339       -0.06107       -4.49771
C         -6.61531       -1.09963       -3.30733
H         -5.53483       -3.41351       -4.35122
H         -5.73192       -2.26478       -5.66633
H         -4.11704       -2.69853       -5.11494
H         -4.74838        0.81400       -3.85292
H         -3.63609       -0.16899       -4.81371
H         -5.27187        0.13731       -5.38673
H         -7.26422       -0.84840       -4.14612
H         -7.01781       -1.99020       -2.82548
H         -6.66019       -0.28221       -2.58795
C         -5.92394        5.00940        0.04579
C         -5.16056        3.89281       -0.69160
C         -6.18242        2.88316       -1.24671
C         -4.37285        4.52598       -1.85453
H         -6.51857        4.60416        0.86427
H         -5.23692        5.75224        0.45084
H         -6.60489        5.52443       -0.63176
H         -6.89925        3.37395       -1.90475
H         -5.69051        2.09649       -1.81713
H         -6.73588        2.41027       -0.43571
H         -5.03612        5.07843       -2.51982
H         -3.61945        5.21745       -1.47746
H         -3.86323        3.76811       -2.44847
C         -3.43535        1.78112        4.68776
C         -3.04608        3.05694        3.91728
C         -3.97230        4.20387        4.36426
C         -1.59553        3.44163        4.25921
H         -2.77401        0.95174        4.43937
H         -3.37899        1.94187        5.76408
H         -4.45342        1.47945        4.44292
H         -3.87060        4.38809        5.43370
H         -3.72718        5.13027        3.84501
H         -5.01733        3.96322        4.17011
H         -1.29441        4.32996        3.70519
H         -1.48896        3.65567        5.32243
H         -0.90393        2.63705        4.01292
C          5.62892       -3.53660        4.24298
C          5.35629       -2.06506        3.88111
C          4.29403       -1.51307        4.85249
C          6.64550       -1.24016        4.04855
H          4.73036       -4.13831        4.10773
H          6.41276       -3.96034        3.61629
H          5.94526       -3.63081        5.28166
H          4.07972       -0.46483        4.64562
H          3.36376       -2.07580        4.77822
H          4.63939       -1.58163        5.88388
H          6.99286       -1.26447        5.08130
H          7.44665       -1.62465        3.41843
H          6.47419       -0.19941        3.77415
C          6.57148       -4.38291       -0.80837
C          6.29552       -2.88433       -1.02604
C          7.61493       -2.09411       -0.94523
C          5.70222       -2.69420       -2.43648
H          5.64382       -4.95383       -0.84485
H          7.23871       -4.77267       -1.57696
H          7.03681       -4.56260        0.16015
H          8.30854       -2.41268       -1.72321
H          7.43283       -1.02714       -1.07203
H          8.10546       -2.23766        0.01672
H          4.77577       -3.25646       -2.55232
H          5.49628       -1.64276       -2.63687
H          6.39741       -3.04503       -3.19904
C          1.41092        4.39592        2.38558
C          1.12199        4.55782        0.88211
C         -0.39697        4.53945        0.63883
C          1.66322        5.92655        0.42564
H          0.96072        5.20478        2.96055
H          1.01734        3.45317        2.76278
H          2.48433        4.40539        2.57350
H         -0.83329        3.59181        0.94630
H         -0.89348        5.33120        1.19944
H         -0.61912        4.68927       -0.41691
H          2.73242        6.01165        0.61865
H          1.48873        6.08129       -0.63905
H          1.16770        6.73556        0.96232
C          5.96233        2.17441       -1.56578
C          4.72562        2.74856       -2.28183
C          4.97256        4.24013       -2.57850
C          4.52449        2.01736       -3.62057
H          5.84354        1.10914       -1.37005
H          6.86041        2.30629       -2.16892
H          6.11990        2.67304       -0.60965
H          5.18376        4.79423       -1.66419
H          5.82817        4.36565       -3.24197
H          4.10716        4.69002       -3.06501
H          5.38149        2.16452       -4.27764
H          4.40273        0.94542       -3.47242
H          3.64037        2.39375       -4.13302
H         -1.20975       -0.95675       -4.20904
H          2.38644       -0.98150       -3.69645
H         -2.09692       -2.46869       -4.06139
H         -0.60457       -2.41705       -4.99760
H          2.53594        0.29570       -4.90185
H          1.25112       -0.89647       -5.04490
