45
-71.81382444
C          0.32377        0.58676        2.48291
P          0.95217        0.60271        0.76936
P         -1.64127        0.26244       -1.03072
C         -2.43272       -0.07455       -2.63814
Cl         1.88582       -2.32167        0.18947
H          0.70811        1.44474        3.02705
H         -3.25870        0.61220       -2.79931
Cl        -1.12842       -2.88785       -1.27471
C          0.29312        2.01292       -0.14712
C         -0.81627        1.86549       -0.95190
C         -1.32192        2.94831       -1.64128
C         -0.70317        4.18141       -1.53314
C          0.41224        4.32784       -0.73136
C          0.91096        3.24132       -0.03444
H         -2.20064        2.82572       -2.25342
H         -1.09450        5.02836       -2.07237
H          0.89381        5.28811       -0.64672
H          1.78009        3.34059        0.59605
Pd         0.03048       -1.19213       -0.37604
H         -2.81238       -1.09222       -2.65376
H          0.63525       -0.32448        2.98545
H         -1.70839        0.04407       -3.43892
C         -4.46708       -0.19522        2.49850
C         -4.00211        1.05791        2.14948
C         -3.15190        1.20097        1.06779
C         -2.77875        0.09226        0.34377
C         -3.23092       -1.15878        0.69339
C         -4.08178       -1.30561        1.77305
H         -5.12926       -0.30733        3.34145
H         -4.29924        1.92302        2.71919
H         -2.77357        2.17071        0.78726
H         -2.89033       -2.01425        0.13224
H         -4.43721       -2.28447        2.05005
C          5.48858        0.50998        0.43412
C          4.89508        0.28830        1.66115
C          3.51708        0.32131        1.77764
C          2.74406        0.57880        0.66846
C          3.33052        0.79428       -0.55789
C          4.70867        0.76240       -0.67697
H          6.56212        0.48179        0.34275
H          5.50384        0.08495        2.52683
H          3.04319        0.13984        2.72853
H          2.70643        0.98391       -1.41733
H          5.17078        0.93068       -1.63581
H         -0.76155        0.63034        2.47802
