171
-217.83577969
P         -1.49689        0.17993       -0.21262
P          1.66433       -0.71144        0.20602
C         -0.69474        0.69593       -1.74433
C          0.81565       -1.94086       -0.81199
C          0.02745       -0.24824       -2.46266
C          0.68043        0.14144       -3.64759
C          0.55137        1.44989       -4.08555
C         -0.17988        2.37186       -3.36553
C         -0.80017        1.98961       -2.19273
C          0.84894       -3.21968       -0.30825
C          0.17605       -4.24006       -0.95189
C         -0.54651       -3.96387       -2.09253
C         -0.60417       -2.68058       -2.60957
C          0.09975       -1.64525       -1.96583
Cl         1.21908       -0.21683        3.40852
Cl        -1.90367       -0.97832        2.95242
C         -1.43684       -2.42935       -3.81772
C          1.48776       -0.83622       -4.42903
H         -0.26231        3.38876       -3.71300
H         -1.36581        2.70564       -1.62291
H          1.39780       -3.41434        0.60155
H          0.20765       -5.24246       -0.55730
H          1.03077        1.74519       -5.00330
H         -1.08893       -4.75049       -2.58966
C         -4.69553       -2.85858       -1.25174
C         -3.92676       -3.06665       -0.11266
C         -2.95635       -2.12465        0.19542
C         -2.75159       -1.03786       -0.61466
C         -3.50916       -0.85504       -1.74574
C         -4.50534       -1.76327       -2.08576
H         -5.47777       -3.55395       -1.49009
H         -2.37523       -2.22301        1.09444
H         -3.30848       -0.00128       -2.36921
C         -3.78082        3.73164        1.50493
C         -4.00998        3.32500        0.19731
C         -3.29768        2.23104       -0.27824
C         -2.37367        1.59007        0.51141
C         -2.17407        2.00461        1.80698
C         -2.87783        3.07773        2.33308
H         -4.32672        4.57589        1.88188
H         -3.46010        1.87138       -1.27872
H         -1.47894        1.48078        2.43587
C          5.72956       -2.43366        1.22259
C          5.24896       -2.53437       -0.07694
C          3.98392       -2.02379       -0.34083
C          3.24893       -1.43033        0.65643
C          3.74312       -1.33609        1.93193
C          4.99723       -1.84208        2.24426
H          6.70485       -2.82603        1.44520
H          3.55856       -2.08472       -1.32831
H          3.13242       -0.86803        2.68119
C          2.82554        3.39901       -1.32216
C          1.85004        3.31889       -0.33452
C          1.46345        2.05614        0.09720
C          2.03040        0.92691       -0.44691
C          3.00128        1.02894       -1.41274
C          3.42166        2.27014       -1.87147
H          3.14785        4.36658       -1.65475
H          0.73451        1.95723        0.88183
H          3.46285        0.13169       -1.78716
Pd        -0.15840       -0.46104        1.64628
C         -2.80343       -5.05885        0.90977
C         -4.12247       -4.26880        0.82102
C         -5.22541       -5.21507        0.31021
C         -4.51783       -3.76269        2.22086
H         -2.49905       -5.40901       -0.07621
H         -1.99862       -4.44265        1.30906
H         -2.91111       -5.92767        1.55870
H         -4.98315       -5.60026       -0.68015
H         -5.34144       -6.06905        0.97747
H         -6.18718       -4.70516        0.25820
H         -5.43636       -3.17827        2.17341
H         -4.68092       -4.59479        2.90537
H         -3.74114       -3.12858        2.64668
C         -4.90658       -0.41676       -4.20862
C         -5.43487       -1.53477       -3.28737
C         -6.82295       -1.12692       -2.76307
C         -5.55781       -2.82513       -4.12134
H         -5.54995       -0.29804       -5.08033
H         -4.87919        0.54209       -3.69212
H         -3.90286       -0.64489       -4.56590
H         -7.24703       -1.90719       -2.13163
H         -6.75741       -0.21557       -2.16879
H         -7.51466       -0.94590       -3.58559
H         -4.58143       -3.15689       -4.47198
H         -6.00141       -3.63541       -3.54474
H         -6.18850       -2.66237       -4.99523
C         -5.16255        3.43683       -2.06944
C         -5.00925        4.09022       -0.68141
C         -4.50704        5.53285       -0.87203
C         -6.38917        4.10291        0.00201
H         -4.21534        3.43042       -2.60860
H         -5.51833        2.41053       -1.98071
H         -5.88271        3.98417       -2.67744
H         -4.42384        6.05129        0.08256
H         -3.52355        5.53848       -1.34196
H         -5.18731        6.10303       -1.50441
H         -7.12529        4.61695       -0.61583
H         -6.74261        3.08612        0.17247
H         -6.35189        4.61046        0.96504
C         -3.06295        2.27601        4.69748
C         -2.66249        3.46470        3.80328
C         -3.51010        4.68787        4.20121
C         -1.17914        3.80441        4.03350
H         -2.93824        2.52063        5.75202
H         -4.10561        2.00523        4.53329
H         -2.45388        1.39815        4.48460
H         -4.57401        4.48381        4.08217
H         -3.34059        4.95246        5.24488
H         -3.25340        5.55624        3.59461
H         -1.00203        4.09724        5.06813
H         -0.53884        2.95019        3.81725
H         -0.87217        4.63013        3.39273
C          5.40471       -3.15539       -2.53984
C          6.11206       -3.17966       -1.17000
C          6.39786       -4.64427       -0.79223
C          7.43744       -2.40551       -1.29525
H          6.03108       -3.61085       -3.30671
H          4.46735       -3.71055       -2.50794
H          5.19116       -2.13342       -2.85301
H          6.99599       -5.13567       -1.55943
H          6.94238       -4.71097        0.14898
H          5.46759       -5.20103       -0.68074
H          8.06378       -2.82900       -2.08022
H          7.25083       -1.36008       -1.53996
H          8.00384       -2.43524       -0.36525
C          4.61053       -1.07185        4.63906
C          5.58530       -1.75568        3.65983
C          6.88892       -0.93746        3.61857
C          5.87806       -3.17609        4.17690
H          5.03901       -1.02087        5.63982
H          4.38761       -0.05280        4.32379
H          3.67320       -1.62327        4.70925
H          7.63241       -1.40889        2.97692
H          6.70163        0.06464        3.23315
H          7.32090       -0.84113        4.61452
H          6.27791       -3.14758        5.19036
H          4.96792       -3.77545        4.18968
H          6.60549       -3.68566        3.54615
C          1.82126        5.86839       -0.26822
C          1.27569        4.56779        0.35271
C          1.67013        4.53502        1.84047
C         -0.25681        4.58180        0.22019
H          1.39004        6.74057        0.22313
H          2.90375        5.93284       -0.15994
H          1.57348        5.93042       -1.32781
H          2.75433        4.52409        1.95006
H          1.28674        5.40870        2.36696
H          1.27911        3.64525        2.33177
H         -0.68766        5.43787        0.73909
H         -0.55236        4.64300       -0.82639
H         -0.69584        3.68192        0.64436
C          5.86272        1.82535       -2.17101
C          4.59134        2.34978       -2.86388
C          4.84258        3.79502       -3.33492
C          4.28969        1.48541       -4.10067
H          5.73745        0.79088       -1.85250
H          6.72057        1.86839       -2.84179
H          6.09309        2.42010       -1.28734
H          5.12842        4.43727       -2.50222
H          5.65069        3.82830       -4.06559
H          3.95250        4.21246       -3.80558
H          4.15983        0.43836       -3.83114
H          3.38031        1.82646       -4.59316
H          5.10379        1.54142       -4.82314
H         -1.01532       -2.92486       -4.69351
H          0.85036       -1.44712       -5.06881
H         -1.51869       -1.36430       -4.03681
H         -2.44639       -2.81369       -3.67065
H          2.04092       -1.50421       -3.76668
H          2.21080       -0.33245       -5.07153
