171
-217.83451868
P         -1.64156        0.33359       -0.32201
P          1.59893       -0.49322        0.12644
C         -0.80473        1.00797       -1.76050
C          0.76990       -1.65369       -0.98090
C          0.00324        0.16598       -2.51531
C          0.68908        0.69543       -3.62526
C          0.52132        2.03356       -3.94309
C         -0.30002        2.84782       -3.19040
C         -0.96227        2.32997       -2.09430
C          0.79572       -2.97039       -0.58557
C          0.20047       -3.94555       -1.36084
C         -0.44728       -3.58671       -2.52247
C         -0.51740       -2.26216       -2.92120
C          0.11255       -1.27043       -2.14507
Cl         1.20463        0.63888        3.18925
Cl        -1.93121        0.05620        2.94909
C         -1.26680       -1.92128       -4.16056
C          1.56535       -0.15984       -4.47119
H         -0.42683        3.88394       -3.45831
H         -1.61143        2.95530       -1.50373
H          1.28830       -3.23712        0.33740
H          0.24196       -4.97879       -1.05721
H          1.04244        2.43628       -4.79518
H         -0.92441       -4.33991       -3.12665
C         -4.32445       -3.15166       -1.35942
C         -4.42872       -1.98303       -2.10591
C         -3.57508       -0.93510       -1.78316
C         -2.66680       -1.06530       -0.76115
C         -2.58455       -2.22063       -0.02666
C         -3.41149       -3.29706       -0.32139
H         -4.98252       -3.97203       -1.57517
H         -3.63452        0.00275       -2.31005
H         -1.87840       -2.26649        0.78434
C         -4.32873        3.30394        1.82271
C         -2.98857        3.63154        1.65761
C         -2.18308        2.73925        0.96011
C         -2.69976        1.56571        0.46876
C         -4.02092        1.24798        0.66989
C         -4.86463        2.11177        1.35535
H         -4.97725        3.98652        2.33852
H         -1.13696        2.94380        0.81849
H         -4.38564        0.30318        0.30846
C          5.18033       -2.74964        1.78800
C          4.82355       -2.91245        0.45599
C          3.71444       -2.21583       -0.00680
C          2.99148       -1.40331        0.83389
C          3.36339       -1.25939        2.14593
C          4.46543       -1.93247        2.65364
H          6.04322       -3.27032        2.16082
H          3.39765       -2.31157       -1.03105
H          2.78340       -0.60746        2.77134
C          3.70610        3.05838       -1.73577
C          4.03238        1.77763       -2.16084
C          3.32904        0.71371       -1.60906
C          2.34883        0.93181       -0.67093
C          2.05008        2.20532       -0.25175
C          2.72893        3.29809       -0.77759
H          4.25112        3.88579       -2.14930
H          3.55777       -0.29806       -1.89281
H          1.30556        2.34330        0.51294
Pd        -0.19905        0.12878        1.51577
C         -6.55530       -0.79265       -2.66403
C         -5.50515       -1.78869       -3.18603
C         -6.21030       -3.11522       -3.53021
C         -4.87514       -1.23397       -4.47795
H         -7.02886       -1.17346       -1.75956
H         -6.09960        0.16881       -2.42861
H         -7.33539       -0.62186       -3.40569
H         -6.93306       -2.97154       -4.33334
H         -5.49139       -3.86505       -3.86028
H         -6.75239       -3.50939       -2.67100
H         -5.63731       -1.06734       -5.23906
H         -4.37126       -0.28430       -4.30443
H         -4.14910       -1.93472       -4.88647
C         -4.71458       -4.78502        1.21327
C         -3.36979       -4.60082        0.48723
C         -2.24387       -4.57919        1.54019
C         -3.12469       -5.78762       -0.46305
H         -4.91086       -3.94341        1.87742
H         -5.53985       -4.85127        0.50513
H         -4.71356       -5.69551        1.81223
H         -2.39871       -3.78012        2.26486
H         -2.21017       -5.51940        2.09029
H         -1.27103       -4.43552        1.07128
H         -3.92953       -5.88828       -1.19002
H         -2.19334       -5.65522       -1.01226
H         -3.05908       -6.72366        0.09129
C         -2.28426        5.94398        1.02867
C         -2.40587        4.94745        2.19322
C         -1.01838        4.69450        2.81566
C         -3.30563        5.56163        3.28473
H         -3.26576        6.17354        0.61417
H         -1.82771        6.87763        1.35673
H         -1.67651        5.53171        0.22500
H         -1.07692        3.93011        3.59028
H         -0.30134        4.36100        2.06952
H         -0.62088        5.60359        3.26652
H         -3.48209        4.84811        4.08948
H         -2.83823        6.44551        3.71868
H         -4.26846        5.87137        2.87976
C         -6.61147        1.83539        3.13612
C         -6.33851        1.77461        1.62131
C         -6.69382        0.35955        1.12490
C         -7.23055        2.79202        0.88847
H         -6.44116        2.83563        3.53210
H         -7.64293        1.56202        3.35783
H         -5.95697        1.14756        3.67122
H         -6.07884       -0.39457        1.61597
H         -7.73720        0.12485        1.33495
H         -6.54822        0.27672        0.04917
H         -7.04081        2.76702       -0.18453
H         -8.28601        2.57366        1.05022
H         -7.04109        3.80634        1.23811
C          7.07449       -3.24153       -0.59103
C          5.65506       -3.82204       -0.45933
C          5.03577       -3.93115       -1.86724
C          5.72377       -5.23562        0.14830
H          7.56980       -3.18770        0.37787
H          7.68903       -3.85727       -1.24753
H          7.04139       -2.23413       -1.00564
H          5.62439       -4.59707       -2.49808
H          4.02271       -4.33052       -1.81965
H          5.00120       -2.95969       -2.35939
H          6.21136       -5.22717        1.12226
H          4.72288       -5.64704        0.27802
H          6.28495       -5.91062       -0.49769
C          3.97202       -0.85633        4.90753
C          4.90851       -1.79165        4.11709
C          6.33236       -1.20779        4.16224
C          4.89213       -3.17697        4.78914
H          2.94994       -1.23440        4.90980
H          4.29467       -0.77150        5.94501
H          3.96690        0.14655        4.48126
H          7.04420       -1.86024        3.65792
H          6.36449       -0.23501        3.67186
H          6.66878       -1.07888        5.19084
H          5.58113       -3.86386        4.29915
H          5.18229       -3.10552        5.83724
H          3.89482       -3.61415        4.74397
C          5.39357        0.08511       -3.49169
C          5.19479        1.57361       -3.14374
C          6.49322        2.09258       -2.49768
C          4.91803        2.35410       -4.44203
H          6.21381       -0.04091       -4.19826
H          5.63600       -0.49420       -2.60115
H          4.49950       -0.33934       -3.94580
H          7.34526        1.94562       -3.16120
H          6.42559        3.15618       -2.27195
H          6.69587        1.56523       -1.56559
H          3.98345        2.03185       -4.89843
H          4.84352        3.42427       -4.25306
H          5.71738        2.20014       -5.16671
C          2.58397        4.73847        1.26950
C          2.41565        4.70941       -0.26192
C          0.97147        5.07182       -0.64065
C          3.35707        5.76771       -0.86953
H          2.35222        5.72534        1.66963
H          1.93016        4.01810        1.75789
H          3.60902        4.49375        1.54696
H          0.27186        4.33434       -0.25380
H          0.69587        6.04806       -0.24234
H          0.85484        5.10361       -1.72335
H          4.39807        5.54894       -0.63229
H          3.25031        5.81365       -1.95315
H          3.12936        6.75806       -0.47531
H         -1.61364       -0.88714       -4.14555
H          1.04251       -0.48172       -5.37259
H         -2.14138       -2.56375       -4.26681
H         -0.64424       -2.06049       -5.04512
H          1.89313       -1.04995       -3.93213
H          2.45580        0.38442       -4.78432
