171
-217.83849662
P         -1.41217        0.22155       -0.39293
P          1.67003       -0.67992        0.39494
C         -0.42036        1.07497       -1.63405
C          1.07105       -1.66994       -0.99429
C          0.48805        0.32885       -2.37434
C          1.30291        0.98168       -3.31934
C          1.13102        2.34026       -3.52824
C          0.20397        3.06007       -2.80356
C         -0.56520        2.42399       -1.84903
C          1.08045       -3.02724       -0.77386
C          0.59459       -3.89337       -1.73380
C          0.08053       -3.38669       -2.90770
C          0.04630       -2.02258       -3.14305
C          0.56114       -1.14086       -2.17383
Cl         0.67874       -1.10891        3.42901
Cl        -2.35914       -1.48296        2.33458
C         -0.55318       -1.52537       -4.41177
C          2.32504        0.23310       -4.10135
H          0.08451        4.11661       -2.97906
H         -1.27610        2.98427       -1.26634
H          1.46442       -3.40722        0.16157
H          0.61028       -4.95700       -1.56078
H          1.73072        2.83445       -4.27350
H         -0.31460       -4.05453       -3.65468
C         -4.20109       -2.61838       -2.56439
C         -3.61963       -3.04099       -1.37490
C         -2.77466       -2.15931       -0.71713
C         -2.50912       -0.91982       -1.23955
C         -3.07830       -0.52419       -2.42557
C         -3.94508       -1.36705       -3.11194
H         -4.88720       -3.26897       -3.07262
H         -2.34086       -2.43338        0.22742
H         -2.82993        0.44617       -2.81899
C         -4.17717        3.21869        1.64378
C         -3.32007        2.47924        2.44694
C         -2.45941        1.58560        1.82473
C         -2.47253        1.41964        0.45946
C         -3.34951        2.14417       -0.31121
C         -4.20961        3.07150        0.26372
H         -4.84862        3.91803        2.10708
H         -1.78546        1.00074        2.42054
H         -3.36137        1.97893       -1.37378
C          5.55019       -2.64079        1.70399
C          4.69346       -2.15878        2.68728
C          3.50234       -1.57495        2.28105
C          3.18499       -1.47623        0.95124
C          4.04480       -1.95378       -0.00753
C          5.24573       -2.55264        0.35017
H          6.47385       -3.09962        1.99956
H          2.80098       -1.21307        3.00995
H          3.77064       -1.86675       -1.04607
C          2.84311        3.64960       -0.24722
C          3.61977        2.63855       -0.79555
C          3.20518        1.32770       -0.59839
C          2.07181        1.05346        0.12738
C          1.32569        2.06772        0.68275
C          1.69431        3.39448        0.49085
H          3.15322        4.66890       -0.38561
H          3.77285        0.50548       -0.99791
H          0.45102        1.81947        1.25615
Pd        -0.39544       -0.80895        1.48685
C         -4.83363       -5.26413       -1.63011
C         -3.89192       -4.41741       -0.75313
C         -4.54488       -4.22719        0.62871
C         -2.55945       -5.17354       -0.59635
H         -5.00506       -6.24211       -1.18051
H         -5.80344       -4.78051       -1.74540
H         -4.40694       -5.42587       -2.61989
H         -3.89106       -3.67539        1.30305
H         -5.47778       -3.67101        0.54004
H         -4.76642       -5.18845        1.09177
H         -2.07479       -5.30083       -1.56397
H         -1.87175       -4.63420        0.05405
H         -2.71919       -6.16178       -0.16575
C         -6.15844       -0.68627       -4.04716
C         -4.67521       -0.91704       -4.38642
C         -4.55877       -1.99859       -5.47818
C         -4.08654        0.39429       -4.94448
H         -6.71380       -0.35461       -4.92428
H         -6.62282       -1.60137       -3.68070
H         -6.26256        0.07383       -3.27299
H         -5.04727       -1.67500       -6.39721
H         -3.51523       -2.20653       -5.71053
H         -5.02711       -2.93216       -5.17009
H         -4.21643        1.21690       -4.24203
H         -3.02337        0.28721       -5.15750
H         -4.58381        0.67717       -5.87217
C         -4.77967        2.14372        4.44923
C         -3.39061        2.60932        3.97609
C         -3.16835        4.07581        4.38881
C         -2.32316        1.74051        4.67235
H         -5.56948        2.75803        4.01824
H         -4.95936        1.11073        4.15179
H         -4.86343        2.20280        5.53422
H         -3.91648        4.73241        3.94668
H         -3.22719        4.18744        5.47137
H         -2.18634        4.42290        4.07100
H         -2.46681        0.68411        4.44624
H         -1.31848        2.02586        4.36189
H         -2.37825        1.85398        5.75477
C         -6.61699        3.67402       -0.10971
C         -5.17106        3.92237       -0.57733
C         -5.07875        3.57134       -2.07574
C         -4.81216        5.40888       -0.40000
H         -6.87441        2.61898       -0.20172
H         -6.75306        3.96218        0.93189
H         -7.32433        4.24762       -0.70845
H         -5.33381        2.52599       -2.24855
H         -5.76964        4.17978       -2.65913
H         -4.07534        3.75196       -2.46114
H         -4.90841        5.71704        0.64053
H         -3.78392        5.59554       -0.70990
H         -5.46629        6.04279       -0.99838
C          3.91119       -3.10211        4.87362
C          5.00377       -2.26057        4.18764
C          5.02633       -0.84648        4.79744
C          6.36907       -2.92612        4.44595
H          2.92954       -2.64300        4.76269
H          3.86397       -4.09996        4.43819
H          4.11107       -3.20732        5.93973
H          5.26261       -0.88374        5.86069
H          5.77632       -0.22724        4.30575
H          4.06137       -0.35286        4.68831
H          6.39229       -3.94112        4.04975
H          7.17653       -2.35598        3.98687
H          6.57385       -2.98547        5.51486
C          7.44300       -3.73319       -0.16545
C          6.16769       -3.09677       -0.75045
C          6.58110       -1.94391       -1.68380
C          5.41151       -4.16928       -1.55722
H          7.19923       -4.56879        0.49039
H          8.08405       -4.11450       -0.96024
H          8.02068       -3.00381        0.40208
H          7.10115       -1.16556       -1.12590
H          7.24779       -2.29799       -2.46987
H          5.71334       -1.49183       -2.16274
H          6.04578       -4.59075       -2.33685
H          5.08846       -4.98258       -0.90770
H          4.52601       -3.75365       -2.03695
C          4.55235        3.82576       -2.79931
C          4.90544        2.98672       -1.55887
C          5.65269        1.71953       -2.01757
C          5.84143        3.79131       -0.63734
H          4.03800        4.74521       -2.52202
H          5.44976        4.09810       -3.35454
H          3.90061        3.26615       -3.46842
H          5.93035        1.10179       -1.16387
H          5.03926        1.12276       -2.69154
H          6.56793        1.97986       -2.54903
H          6.07625        3.22290        0.26245
H          6.77832        4.02616       -1.14226
H          5.38517        4.73147       -0.33004
C         -0.39104        4.10739        1.76215
C          0.91920        4.57011        1.10427
C          0.56420        5.59420        0.00905
C          1.79659        5.24108        2.17605
H         -0.19817        3.41738        2.58274
H         -0.94080        4.95772        2.16448
H         -1.03524        3.61423        1.03641
H          1.45613        6.00031       -0.46572
H         -0.04874        5.13384       -0.76440
H          0.00235        6.42967        0.42643
H          1.27309        6.07465        2.64396
H          2.06259        4.52812        2.95629
H          2.72053        5.62483        1.74460
H          0.08835       -1.75613       -5.26344
H          1.92200       -0.09012       -5.06192
H         -0.70884       -0.44639       -4.38772
H         -1.52227       -1.99365       -4.58569
H          2.66471       -0.65206       -3.56115
H          3.20000        0.85380       -4.29922
