87
-129.18141520
P         -1.55528       -0.17608       -0.25138
P          1.65671        0.28420        0.26032
C         -1.14861        1.05842       -1.49083
C          1.48022       -0.76355       -1.20691
C         -0.09906        0.80940       -2.36549
C          0.21586        1.77628       -3.34168
C         -0.54250        2.93330       -3.41284
C         -1.58506        3.15705       -2.53819
C         -1.88582        2.21382       -1.57558
C          2.14989       -1.96333       -1.14540
C          2.00682       -2.90226       -2.14780
C          1.16706       -2.64205       -3.20772
C          0.47189       -1.44821       -3.28931
C          0.64441       -0.47563       -2.28498
Cl         1.07930       -0.17270        3.43835
Cl        -1.63811       -1.78775        2.57030
H         -2.16199        4.06492       -2.60396
H         -2.70563        2.37479       -0.89575
H          2.78404       -2.17311       -0.29966
H          2.53610       -3.83937       -2.09167
H         -0.30509        3.66661       -4.16471
H          1.03391       -3.37801       -3.98252
C         -2.60340       -4.06862       -2.34381
C         -1.67487       -4.08507       -1.31202
C         -1.37684       -2.88977       -0.66954
C         -1.99473       -1.72112       -1.04859
C         -2.91945       -1.71344       -2.06629
C         -3.22779       -2.89423       -2.71614
H         -2.83158       -4.98689       -2.85759
C         -0.97126       -5.33997       -0.93264
H         -0.64936       -2.87590        0.12435
H         -3.38279       -0.78306       -2.35546
H         -3.94718       -2.89521       -3.51854
C         -5.02925        1.27140        2.32100
C         -3.86958        2.01741        2.24943
C         -2.81771        1.58207        1.46661
C         -2.93553        0.41136        0.75403
C         -4.08826       -0.33532        0.82767
C         -5.15195        0.08001        1.61954
H         -5.85115        1.60888        2.92918
H         -3.78256        2.93655        2.80536
H         -1.90595        2.15292        1.40400
H         -4.16172       -1.25635        0.27509
C         -6.40442       -0.72131        1.68392
C          5.70267       -0.48667        2.20422
C          4.66687       -1.37474        2.41580
C          3.43189       -1.14415        1.84011
C          3.24075       -0.02918        1.05742
C          4.27244        0.85635        0.84463
C          5.51880        0.64571        1.42320
H          6.66691       -0.66635        2.64842
H          4.81890       -2.24557        3.03222
H          2.61093       -1.82215        2.01192
H          4.11014        1.72253        0.22596
C          6.63970        1.59308        1.17564
C          1.03153        4.76035       -0.22002
C          0.46756        4.09159        0.84846
C          0.67392        2.73344        0.99463
C          1.41863        2.05278        0.05911
C          2.00256        2.71968       -0.99212
C          1.81932        4.08942       -1.14517
H          0.87092        5.81822       -0.34005
H         -0.12361        4.62826        1.57231
H          0.29281        2.20590        1.85413
H          2.59334        2.17029       -1.70588
C          2.42319        4.81798       -2.29376
Pd        -0.11982       -0.47441        1.57176
C          1.34145        1.57994       -4.29673
C         -0.45731       -1.23278       -4.43377
H          2.00419        0.77635       -3.97355
H          0.96860        1.33097       -5.29096
H          1.94206        2.48639       -4.38291
H          0.09504       -1.01500       -5.34858
H         -1.06412       -2.12166       -4.61219
H         -1.14090       -0.40447       -4.24500
H         -1.59206       -6.21532       -1.12849
H         -0.04467       -5.44935       -1.49799
H         -0.71981       -5.34241        0.12898
H         -6.91743       -0.57519        2.63551
H         -7.08895       -0.43579        0.88396
H         -6.19317       -1.78685        1.58266
H          7.21931        1.28800        0.30327
H          6.26836        2.60324        0.99674
H          7.31510        1.63577        2.03131
H          3.21150        4.22981       -2.76567
H          1.67026        5.04019       -3.05106
H          2.86327        5.76206       -1.96944
