111
-148.55143020
P         -2.15192        2.53444        0.30959
P         -0.26348       -0.00225        0.53837
C         -1.71334        1.88492        1.94087
C         -0.89760        0.77905        2.03650
C         -1.85170        4.35895        0.24295
C         -0.97311        4.71629       -0.93625
C         -2.14728        2.52363        3.08479
H         -2.76606        3.40219        3.00151
C         -1.76739        2.04573        4.32703
H         -2.10794        2.54205        5.22107
C         -0.94004        0.94334        4.42109
H         -0.63202        0.57929        5.38744
C         -0.49517        0.31486        3.27182
H          0.18418       -0.52131        3.32915
Pd        -1.02182        1.27853       -1.25369
Cl        -2.17651        2.26512       -2.90297
Cl         0.31254        0.08254       -2.61278
C         -3.27669        4.94416        0.16080
C         -3.96268        2.48369       -0.07244
H         -1.45262        4.42686       -1.87303
H         -0.77930        5.79059       -0.98221
H         -0.01139        4.20075       -0.88736
H         -3.25502        5.88355       -0.41075
H         -3.62806        5.21788        1.16650
H         -4.07606        1.80393       -0.92834
C         -4.27596        3.93883       -0.47737
C         -4.77000        1.98239        1.10564
H         -1.36055        4.63447        1.18624
H         -5.30935        4.18538       -0.19326
H         -4.23829        4.03653       -1.57239
H         -4.42985        0.99566        1.42886
H         -4.67518        2.65949        1.95575
H         -5.83251        1.91091        0.86130
C         -1.23412       -4.45249        0.16179
C         -0.60637       -3.75701       -0.90413
C         -0.36928       -2.40292       -0.74804
C         -0.64836       -1.75349        0.42561
C         -1.15005       -2.44835        1.49611
C         -1.41340       -3.80597        1.41352
O         -1.75031       -5.75713       -0.04794
C         -0.16078       -4.41408       -2.22162
H          0.02455       -1.82368       -1.56452
H         -1.35072       -1.91536        2.40796
C         -1.86361       -4.53124        2.69371
C          4.14125        1.02639        0.07008
C          3.74815       -0.33638        0.02428
C          2.40388       -0.63652        0.16521
C          1.48568        0.34777        0.41646
C          1.87280        1.65391        0.56747
C          3.20110        2.02336        0.43747
O          5.46364        1.39937       -0.28943
C          4.74256       -1.48199       -0.22047
H          2.05182       -1.64729        0.06176
H          1.11143        2.38679        0.77516
C          3.59130        3.49312        0.65640
C         -0.13926       -5.94975       -2.13340
C         -1.10378       -3.97558       -3.35429
C          1.27738       -3.96192       -2.56014
C         -1.74501       -6.06064        2.57273
C         -0.96065       -4.10269        3.87202
C         -3.31908       -4.15203        3.01245
C         -3.08894       -5.75000       -0.51572
H          0.46958       -6.27760       -1.29154
H         -1.14050       -6.35126       -1.99695
H          0.27101       -6.38973       -3.04205
H         -1.10099       -2.89167       -3.46530
H         -0.79856       -4.41063       -4.30552
H         -2.12779       -4.28636       -3.15619
H          1.64118       -4.46314       -3.45664
H          1.33307       -2.89033       -2.74364
H          1.95707       -4.20119       -1.74320
H         -1.97414       -6.54882        3.51970
H         -2.43274       -6.45187        1.82682
H         -0.73554       -6.34564        2.27840
H          0.08823       -4.28223        3.63748
H         -1.07738       -3.04668        4.10948
H         -1.20462       -4.66538        4.77278
H         -3.65511       -4.63484        3.92976
H         -3.42115       -3.07514        3.14328
H         -3.98932       -4.45393        2.20999
H         -3.73646       -5.26208        0.21083
H         -3.15245       -5.21068       -1.45942
H         -3.42343       -6.77695       -0.66403
C          5.62973        1.67229       -1.67523
C          6.13375       -1.14605        0.34671
C          4.27088       -2.77254        0.48789
C          4.83556       -1.75547       -1.72940
C          5.01148        3.60660        1.23921
C          3.50436        4.24761       -0.67895
C          2.63336        4.16747        1.66548
H          6.81792       -1.98612        0.22962
H          6.57420       -0.29117       -0.15978
H          6.06786       -0.90748        1.40770
H          5.02981       -3.55149        0.41811
H          4.07850       -2.58613        1.54411
H          3.36247       -3.17161        0.04012
H          5.18329       -0.87735       -2.26831
H          5.52449       -2.57379       -1.93700
H          3.85969       -2.02443       -2.13267
H          5.09175        3.04087        2.16682
H          5.75593        3.21997        0.54757
H          5.26623        4.64464        1.45147
H          2.49899        4.18289       -1.09373
H          3.74913        5.30144       -0.54877
H          4.19081        3.83205       -1.41237
H          2.56904        3.58784        2.58601
H          1.62933        4.27681        1.25832
H          2.98362        5.16677        1.92292
H          6.34990        0.97538       -2.10333
H          4.67699        1.57701       -2.19784
H          6.01693        2.68294       -1.80401
