105
-153.06355456
Cl         0.16166        2.68854        2.78017
Pd        -0.24370        1.73085        0.77987
P         -0.73877        0.52249       -1.18961
N          0.38000       -0.76958       -1.61718
C          0.47641       -2.15838       -1.43077
C         -0.01523       -2.84828       -0.28948
C          0.36000       -4.19262       -0.07843
C          0.06094       -4.85456        1.24564
C          1.07246       -5.95604        1.59002
C          1.13400       -6.97759        0.44999
C          1.54808       -6.31272       -0.87591
C          1.10756       -4.87534       -1.04190
C          1.52593       -4.19544       -2.17874
C          1.24205       -2.86652       -2.35577
H          1.61793       -2.34236       -3.21759
H          2.11589       -4.72036       -2.91113
H          2.64033       -6.34449       -0.97089
H          1.81430       -7.80267        0.70348
H          2.06353       -5.50679        1.73066
H          0.03523       -4.09701        2.03876
C         -0.71401       -2.11501        0.79471
C          0.05217       -1.22490        1.58723
C         -0.54889       -0.60197        2.67917
C         -1.86690       -0.83518        2.97455
C         -2.63600       -1.70227        2.20567
C         -4.07262       -1.92935        2.59308
C         -4.60399       -3.28201        2.09978
C         -4.35594       -3.42722        0.59584
C         -2.85985       -3.30912        0.24918
C         -2.06418       -2.35053        1.10800
H         -2.40425       -4.30080        0.31295
H         -4.91567       -2.64606        0.07062
H         -5.67091       -3.39841        2.33774
H         -4.68065       -1.11660        2.17838
H         -2.32380       -0.33478        3.81134
H          0.03067        0.08798        3.26610
N          1.36718       -0.94346        1.21307
P          1.85722        0.74184        1.09517
C          2.67362        1.02240       -0.47499
C          2.33775        2.12777       -1.22037
C          2.81942        2.25741       -2.50912
C          3.62835        1.27563       -3.06305
C          3.98146        0.18232       -2.28393
C          3.50550        0.05618       -0.99121
H          3.75234       -0.80883       -0.39584
H          4.62302       -0.57588       -2.69972
C          4.13592        1.41327       -4.45598
H          2.54832        3.11402       -3.10245
H          1.67976        2.87509       -0.80581
C          2.83327        1.28902        2.48646
C          2.96030        0.45624        3.57141
C          3.69170        0.86858        4.67105
C          4.29098        2.12133        4.68891
C          4.15616        2.94336        3.57746
C          3.42468        2.52899        2.47876
H          3.30710        3.16801        1.61785
H          4.62519        3.91242        3.57899
C          5.09640        2.56013        5.86213
H          3.79982        0.21918        5.52287
H          2.48804       -0.51297        3.54840
H          1.64432       -1.34863        0.32603
H          1.22721       -0.27849       -1.87986
C         -0.58850        1.70439       -2.53791
C         -0.92435        3.02955       -2.40008
C         -0.75894        3.90017       -3.45962
C         -0.26686        3.44726       -4.67599
C          0.06025        2.10451       -4.80345
C         -0.10523        1.23750       -3.73809
H          0.15332        0.19537       -3.83457
H          0.45253        1.74315       -5.73865
C         -0.05331        4.39064       -5.80804
H         -1.01060        4.94094       -3.34730
H         -1.31990        3.37789       -1.46220
C         -2.41103       -0.10578       -1.30415
C         -2.66184       -1.01314       -2.30650
C         -3.95463       -1.45328       -2.53287
C         -5.00428       -0.98589       -1.75396
C         -4.73275       -0.06207       -0.75363
C         -3.44174        0.37988       -0.53579
H         -3.24081        1.14021        0.19855
H         -5.54251        0.32365       -0.15817
C         -6.39946       -1.43667       -2.01474
H         -4.15546       -2.15965       -3.32004
H         -1.84265       -1.36608       -2.91341
Cl        -2.08530        2.98018        0.49795
H          1.16729       -6.89315       -1.72572
H          0.82517       -6.43979        2.54556
H          0.14606       -7.44092        0.33292
H         -0.94178       -5.29224        1.21691
H         -4.76761       -4.37635        0.22494
H         -2.73670       -3.01566       -0.79936
H         -4.17384       -1.84979        3.68296
H         -4.08977       -4.09138        2.63326
H          3.42553        1.95690       -5.08065
H          5.08238        1.95530       -4.47193
H          4.29842        0.43663       -4.91408
H          5.04987        3.64269        5.98835
H          4.73090        2.10436        6.78337
H          6.14350        2.27984        5.73996
H         -0.17306        3.88689       -6.76823
H         -0.76841        5.21378       -5.77502
H          0.95094        4.81528       -5.77349
H         -6.86397       -0.82738       -2.79113
H         -6.42133       -2.47643       -2.34437
H         -7.01351       -1.36140       -1.11615
