111
-148.55423775
P         -1.61923        2.69730        0.50269
P         -0.30995       -0.18127        0.59227
C         -1.21204        1.93903        2.10132
C         -0.70267        0.65805        2.13898
C         -0.56274        4.18004        0.18495
C          0.38549        3.92258       -0.96664
C         -1.38382        2.64459        3.27494
H         -1.74739        3.65848        3.23726
C         -1.06752        2.05407        4.48633
H         -1.20515        2.60325        5.40344
C         -0.57046        0.76512        4.52136
H         -0.31967        0.30779        5.46429
C         -0.37809        0.06775        3.34212
H          0.03834       -0.92742        3.34785
Pd        -1.54031        0.94749       -0.99610
Cl        -2.49692        2.30628       -2.50447
Cl        -1.39506       -0.82039       -2.37443
C         -1.59071        5.29873       -0.07816
C         -3.29964        3.47180        0.44625
H          1.00112        4.79924       -1.18130
H          1.05208        3.08446       -0.75363
H         -0.16853        3.67465       -1.87426
H         -1.70229        5.42410       -1.16393
H         -1.21043        6.26308        0.29127
H         -3.69895        3.23971       -0.55005
C         -2.97873        4.97403        0.54553
C         -4.22499        2.93895        1.51953
H         -0.01224        4.36836        1.11608
H         -2.98668        5.27022        1.60349
H         -3.77328        5.56707        0.06726
H         -5.21859        3.38697        1.44663
H         -4.33568        1.85477        1.44339
H         -3.84057        3.15887        2.51584
C         -0.74588       -4.70733        0.80405
C         -1.88192       -3.87563        0.97556
C         -1.70299       -2.50214        0.93303
C         -0.47466       -1.95926        0.66071
C          0.60314       -2.75964        0.38537
C          0.49264       -4.14004        0.40950
O         -0.84095       -6.10134        1.05944
C         -3.28938       -4.44206        1.22006
H         -2.52567       -1.83143        1.11448
H          1.54032       -2.28700        0.14882
C          1.70946       -4.99541        0.02257
C          3.62387        1.47622       -0.98670
C          2.85500        0.59912       -1.79391
C          1.67293        0.10000       -1.27507
C          1.29126        0.37571        0.01101
C          2.07747        1.14501        0.82760
C          3.27078        1.67981        0.37218
O          4.71793        2.18563       -1.55013
C          3.23966        0.23898       -3.23668
H          0.99543       -0.46763       -1.88922
H          1.72921        1.34943        1.82470
C          4.12558        2.51669        1.33611
C         -3.51536       -4.61149        2.72987
C         -4.36654       -3.48346        0.66324
C         -3.47594       -5.79062        0.50094
C          1.27225       -6.32427       -0.62046
C          2.58091       -4.25908       -1.02013
C          2.56015       -5.26618        1.27239
C         -0.55130       -6.46525        2.40319
H         -2.79198       -5.29888        3.16179
H         -3.41308       -3.65626        3.24435
H         -4.51264       -5.00025        2.93421
H         -4.41327       -2.55559        1.23128
H         -4.16491       -3.23836       -0.37926
H         -5.35480       -3.93979        0.71485
H         -3.27116       -5.68832       -0.56423
H         -2.80492       -6.54822        0.89816
H         -4.49472       -6.15943        0.61711
H          0.71965       -6.94267        0.08239
H          0.62921       -6.14033       -1.48050
H          2.13440       -6.89906       -0.95777
H          3.06337       -3.38002       -0.59547
H          3.37222       -4.90930       -1.39242
H          1.97807       -3.94424       -1.87147
H          1.99033       -5.80120        2.02844
H          3.43718       -5.86405        1.02574
H          2.90242       -4.33119        1.71535
H          0.29770       -7.14831        2.42250
H         -0.31929       -5.57958        2.99601
H         -1.41033       -6.97786        2.83579
C          4.36527        3.44042       -2.12045
C          2.59597        1.25072       -4.19732
C          4.76779        0.22335       -3.42083
C          2.73156       -1.17536       -3.59766
C          3.67918        3.98519        1.26466
C          3.95160        2.02073        2.78992
C          5.62267        2.39763        0.99837
H          2.93987        2.26210       -3.99418
H          2.83758        1.01425       -5.23315
H          1.51107        1.24317       -4.09341
H          5.03773       -0.09391       -4.42778
H          5.19844        1.20821       -3.26039
H          5.23199       -0.46271       -2.71311
H          1.64432       -1.21807       -3.63759
H          3.09930       -1.48022       -4.57709
H          3.07805       -1.90641       -2.86840
H          2.62951        4.08228        1.54088
H          4.26495        4.60485        1.94308
H          3.79467        4.38484        0.26009
H          2.95027        2.22137        3.16822
H          4.13651        0.94903        2.85842
H          4.65124        2.52439        3.45658
H          5.93555        1.35407        1.00550
H          6.23185        2.93959        1.72133
H          5.84165        2.80414        0.01432
H          3.29540        3.62093       -2.01313
H          4.91938        4.23695       -1.62418
H          4.62978        3.45029       -3.17768
