111
-148.55424419
P         -2.46816        2.09696       -0.58373
P         -0.01870        0.33461        0.42543
C         -1.90378        2.23431        1.12908
C         -0.83680        1.47582        1.55788
C         -2.58757        3.76055       -1.38436
C         -1.46780        3.96518       -2.38201
C         -2.53402        3.09639        2.00279
H         -3.36283        3.69243        1.65631
C         -2.09731        3.18793        3.31324
H         -2.58983        3.85877        3.99808
C         -1.03145        2.42093        3.74364
H         -0.69204        2.49119        4.76395
C         -0.39841        1.56235        2.86239
H          0.43493        0.95633        3.18180
Pd        -1.05046        0.62201       -1.64087
Cl        -2.37962        0.74458       -3.43849
Cl         0.56479       -0.73994       -2.40668
C         -3.99918        3.75232       -1.99969
C         -4.22222        1.52832       -0.75449
H         -1.53895        4.94122       -2.86766
H         -0.48920        3.89629       -1.90059
H         -1.50303        3.20425       -3.16391
H         -3.92467        3.42741       -3.04660
H         -4.40839        4.77337       -2.03565
H         -4.21413        0.77312       -1.55189
C         -4.95425        2.79652       -1.23045
C         -4.75525        0.93796        0.53274
H         -2.52619        4.49715       -0.57254
H         -5.36733        3.31667       -0.35532
H         -5.82292        2.52689       -1.85018
H         -4.73211        1.67292        1.33873
H         -5.78906        0.60307        0.42085
H         -4.15523        0.08386        0.85106
C         -1.23712       -3.97555        1.23208
C          0.01587       -3.71207        0.62155
C          0.36831       -2.39237        0.39113
C         -0.43006       -1.36327        0.81543
C         -1.59153       -1.61089        1.50041
C         -2.00483       -2.90692        1.76193
O         -1.74757       -5.30033        1.27318
C          0.96883       -4.82542        0.15967
H          1.26106       -2.14864       -0.15804
H         -2.18026       -0.76945        1.82143
C         -3.28842       -3.13752        2.57479
C          4.41857        1.33218        0.16424
C          3.50857        1.85455       -0.78940
C          2.16645        1.54299       -0.65200
C          1.73560        0.67430        0.31636
C          2.62616        0.07788        1.17116
C          3.98130        0.35998        1.09997
O          5.75420        1.81333        0.20711
C          3.94785        2.75422       -1.95525
H          1.43340        1.98092       -1.30756
H          2.24337       -0.60684        1.90776
C          4.94960       -0.35449        2.05610
C          2.43825       -4.36828        0.29443
C          0.81976       -6.09093        1.02390
C          0.68539       -5.15106       -1.31463
C         -3.52429       -1.97502        3.56599
C         -4.49003       -3.22072        1.62115
C         -3.18722       -4.42661        3.41047
C         -2.50977       -5.65971        0.12730
H          3.12097       -5.18766        0.07065
H          2.67638       -3.55727       -0.39183
H          2.64114       -4.03225        1.31057
H          0.97363       -5.85641        2.07667
H         -0.16934       -6.52932        0.92232
H          1.54672       -6.84988        0.73573
H          0.82733       -4.26815       -1.93751
H          1.35269       -5.93204       -1.67802
H         -0.33852       -5.49072       -1.45298
H         -3.76529       -1.04657        3.05095
H         -4.35897       -2.19702        4.23054
H         -2.64173       -1.80610        4.18241
H         -4.57753       -2.31092        1.02848
H         -4.38890       -4.05501        0.93156
H         -5.41917       -3.35397        2.17466
H         -3.09782       -5.30455        2.77526
H         -2.31410       -4.39461        4.06131
H         -4.07090       -4.55978        4.03404
H         -2.01681       -6.47363       -0.40374
H         -3.49535       -6.00489        0.43957
H         -2.61735       -4.80429       -0.54089
C          5.92813        2.96125        1.02835
C          5.37713        2.41101       -2.41270
C          3.02301        2.54589       -3.17712
C          3.86836        4.22588       -1.52303
C          5.06080        0.45122        3.35911
C          4.43777       -1.77253        2.39103
C          6.34071       -0.52508        1.41806
H          5.45108        1.35739       -2.67994
H          5.66346        3.00268       -3.28183
H          6.10307        2.60727       -1.62764
H          2.01880        2.92481       -2.99376
H          3.40869        3.07292       -4.04943
H          2.94827        1.48858       -3.43012
H          2.85280        4.48560       -1.22491
H          4.52259        4.42414       -0.67730
H          4.16092        4.88812       -2.33747
H          4.08610        0.54763        3.83689
H          5.73558       -0.03524        4.06301
H          5.43724        1.45399        3.17044
H          3.51748       -1.74577        2.97232
H          4.25430       -2.33691        1.47786
H          5.17277       -2.32044        2.98028
H          7.00283       -1.09623        2.06836
H          6.81321        0.43601        1.23183
H          6.26428       -1.04977        0.46629
H          6.64073        2.73853        1.82234
H          6.32778        3.78093        0.43149
H          4.97655        3.26177        1.46865
