171
-217.84309581
P         -1.66282        0.34892       -0.38617
P          1.61902       -0.39485       -0.33618
C         -0.94714        1.26228       -1.75496
C          0.90646       -1.41721       -1.62757
C         -0.13116        0.61088       -2.67328
C          0.48576        1.36951       -3.68679
C          0.23829        2.73007       -3.76065
C         -0.59789        3.35105       -2.85729
C         -1.18529        2.61159       -1.84985
C          1.14925       -2.76896       -1.59044
C          0.56432       -3.60624       -2.51944
C         -0.28067       -3.07985       -3.47308
C         -0.54044       -1.72013       -3.52556
C          0.08167       -0.86188       -2.59916
Cl         1.58676        0.44160        2.75910
Cl        -1.55454       -0.36947        2.88447
C         -1.45621       -1.18854       -4.57100
C          1.38820        0.73661       -4.68761
H         -0.79049        4.40863       -2.93479
H         -1.83872        3.08935       -1.13835
H          1.79974       -3.17265       -0.83160
H          0.76265       -4.66530       -2.49334
H          0.70909        3.30417       -4.54087
H         -0.75053       -3.72953       -4.19213
C         -4.00899       -3.29905       -1.65304
C         -2.93631       -3.45927       -0.78419
C         -2.22418       -2.32536       -0.41420
C         -2.57114       -1.09631       -0.91596
C         -3.62892       -0.95387       -1.77966
C         -4.37790       -2.05951       -2.16357
H         -4.57754       -4.16853       -1.92390
H         -1.39652       -2.38803        0.27111
H         -3.88070        0.02995       -2.13984
C         -4.20616        2.87029        2.40131
C         -2.89854        3.26496        2.14633
C         -2.15595        2.50461        1.25315
C         -2.69720        1.39102        0.65936
C         -3.98473        1.00476        0.93896
C         -4.76931        1.74290        1.81644
H         -4.80394        3.44290        3.08507
H         -1.13490        2.76733        1.03540
H         -4.36408        0.10701        0.48423
C          4.44538       -2.75173        2.31408
C          3.09257       -3.07130        2.32867
C          2.24938       -2.36219        1.48388
C          2.74128       -1.36008        0.68546
C          4.07764       -1.04763        0.69439
C          4.96193       -1.74650        1.50572
H          5.11964       -3.28875        2.95423
H          1.19473       -2.57956        1.46158
H          4.42327       -0.24266        0.07090
C          3.84378        3.28945       -1.71900
C          4.13149        2.07246       -2.32534
C          3.41158        0.95560       -1.91589
C          2.45396        1.06872       -0.93803
C          2.18732        2.27679       -0.34453
C          2.87939        3.41790       -0.72671
H          4.40481        4.15405       -2.01966
H          3.60216       -0.01531       -2.34064
H          1.45140        2.32361        0.44012
Pd        -0.04346        0.03802        1.26244
C         -3.76253       -5.33769        0.64941
C         -2.59796       -4.84999       -0.23055
C         -1.31577       -4.82134        0.62339
C         -2.38102       -5.83129       -1.39771
H         -3.93667       -4.64629        1.47375
H         -4.68557       -5.41273        0.07549
H         -3.54892       -6.31977        1.07093
H         -0.46932       -4.46057        0.04027
H         -1.43625       -4.17696        1.49398
H         -1.06971       -5.81961        0.98498
H         -2.09810       -6.81751       -1.03010
H         -3.28461       -5.94705       -1.99470
H         -1.58882       -5.47697       -2.05601
C         -5.17175       -1.19982       -4.39231
C         -5.60068       -1.87069       -3.07473
C         -6.62831       -0.97875       -2.35515
C         -6.27330       -3.21510       -3.41371
H         -4.69518       -0.23697       -4.21272
H         -4.46855       -1.83067       -4.93403
H         -6.03203       -1.02902       -5.03932
H         -6.21055        0.00250       -2.13248
H         -7.51653       -0.83179       -2.96936
H         -6.94000       -1.43466       -1.41574
H         -6.63662       -3.71104       -2.51383
H         -7.12806       -3.06398       -4.07295
H         -5.57847       -3.88359       -3.92189
C         -2.13951        5.61151        1.74108
C         -2.26608        4.50226        2.79896
C         -0.87069        4.14310        3.34887
C         -3.12023        5.02611        3.96992
H         -1.54859        5.27464        0.89090
H         -3.12142        5.90081        1.36700
H         -1.66029        6.49753        2.15711
H         -0.42741        4.99008        3.87208
H         -0.93555        3.30964        4.04798
H         -0.18707        3.85718        2.55183
H         -4.09323        5.37508        3.62524
H         -3.27603        4.24781        4.71682
H         -2.62877        5.86565        4.46148
C         -6.26777        1.02520        3.69102
C         -6.20078        1.32627        2.18263
C         -6.63870        0.06509        1.41339
C         -7.17195        2.46931        1.83451
H         -7.26762        0.70289        3.98117
H         -5.56674        0.23371        3.95544
H         -6.01593        1.90511        4.28179
H         -5.99383       -0.78224        1.64583
H         -7.65865       -0.21514        1.67619
H         -6.61012        0.23816        0.33852
H         -6.93951        3.37325        2.39612
H         -7.11666        2.71079        0.77315
H         -8.20028        2.19050        2.06403
C          3.54457       -4.68640        4.24346
C          2.50679       -4.16698        3.22989
C          2.04260       -5.34059        2.35079
C          1.30775       -3.59850        4.01571
H          4.38725       -5.15833        3.73881
H          3.92296       -3.87490        4.86486
H          3.10055       -5.43111        4.90395
H          2.88115       -5.76368        1.79798
H          1.60017       -6.13233        2.95507
H          1.29876       -5.01379        1.62618
H          0.49969       -3.29531        3.35160
H          0.90584       -4.34061        4.70512
H          1.60739       -2.72549        4.59503
C          7.27049       -2.67990        1.19078
C          6.46123       -1.41889        1.54596
C          6.83531       -0.94026        2.96027
C          6.82637       -0.30857        0.54022
H          7.09230       -3.48135        1.90665
H          6.99609       -3.04681        0.20188
H          8.33973       -2.46879        1.18767
H          6.25488       -0.05914        3.23324
H          6.63959       -1.71244        3.70339
H          7.89220       -0.68061        3.01808
H          7.89506       -0.09650        0.56840
H          6.57528       -0.60564       -0.47789
H          6.30132        0.61850        0.76993
C          5.00222        2.98479       -4.50235
C          5.26391        1.98610       -3.35897
C          5.37870        0.57168       -3.96043
C          6.59701        2.33145       -2.66983
H          4.04617        2.78374       -4.98353
H          4.98247        4.01099       -4.13785
H          5.78104        2.91881       -5.26191
H          5.61295       -0.16428       -3.19152
H          4.45191        0.27543       -4.45035
H          6.17344        0.53180       -4.70522
H          6.58091        3.34204       -2.26317
H          6.79503        1.64431       -1.84775
H          7.42809        2.26643       -3.37187
C          3.48074        5.88629       -0.53902
C          2.57824        4.74877       -0.02454
C          2.81292        4.58644        1.48946
C          1.11212        5.13296       -0.28511
H          3.33307        6.05233       -1.60599
H          3.25415        6.82085       -0.02590
H          4.53288        5.66110       -0.36552
H          2.17070        3.81478        1.91127
H          3.84612        4.30377        1.68985
H          2.60776        5.51677        2.01870
H          0.85215        6.05808        0.22895
H          0.93732        5.27749       -1.35066
H          0.43675        4.35231        0.06027
H         -1.95684       -0.28006       -4.23304
H          0.88672        0.62534       -5.64989
H         -2.22620       -1.91963       -4.81895
H         -0.91142       -0.95536       -5.48651
H          1.71847       -0.25048       -4.36145
H          2.27817        1.34578       -4.84480
