111
-148.55080199
P         -2.28226        2.43091       -0.25557
P         -0.13028        0.24318        0.51225
C         -1.85072        2.17488        1.48184
C         -0.92443        1.21080        1.81229
C         -2.03997        4.19821       -0.73926
C         -0.82860        4.34829       -1.63377
C         -2.44283        2.93316        2.47090
H         -3.15484        3.69631        2.20113
C         -2.11606        2.70865        3.79717
H         -2.57906        3.29795        4.57174
C         -1.20103        1.72767        4.12884
H         -0.95099        1.54866        5.16160
C         -0.60360        0.97560        3.13306
H          0.10737        0.20130        3.37604
Pd        -1.23586        0.76791       -1.46425
Cl        -2.10835        1.68653       -3.31407
Cl        -0.25354       -1.02082       -2.40614
C         -3.38076        4.56771       -1.40143
C         -4.08734        2.23590       -0.62436
H          0.07968        4.00313       -1.13334
H         -0.94479        3.75684       -2.54368
H         -0.67848        5.38850       -1.93237
H         -3.28631        4.43027       -2.48740
H         -3.59894        5.63669       -1.25683
H         -4.13988        1.66079       -1.55863
C         -4.54613        3.68482       -0.87001
C         -4.82016        1.51281        0.48548
H         -1.90630        4.75631        0.19682
H         -4.92325        4.10237        0.07361
H         -5.40079        3.70321       -1.56331
H         -4.39974        0.51900        0.65500
H         -4.74810        2.06295        1.42467
H         -5.88115        1.39639        0.25286
C         -1.06701       -4.18723        0.92403
C          0.26051       -3.78515        0.62647
C          0.52524       -2.43084        0.51636
C         -0.45010       -1.49864        0.75207
C         -1.70795       -1.87777        1.14171
C         -2.03661       -3.21599        1.28462
O         -1.43844       -5.55318        0.81130
C          1.39485       -4.78610        0.35954
H          1.49779       -2.08512        0.21481
H         -2.43850       -1.10736        1.32128
C         -3.44014       -3.58716        1.78743
C          4.30164        1.20317        0.00653
C          3.61506        0.44616       -0.97608
C          2.26502        0.20867       -0.79045
C          1.61512        0.62066        0.34292
C          2.29800        1.26667        1.34034
C          3.65041        1.54087        1.22065
O          5.62712        1.65113       -0.23836
C          4.29835       -0.09237       -2.24293
H          1.68734       -0.29907       -1.54220
H          1.75451        1.56569        2.21826
C          4.38358        2.21665        2.39055
C          1.45528       -5.08563       -1.14621
C          2.75412       -4.19881        0.80369
C          1.19114       -6.08925        1.15314
C         -3.42473       -4.92715        2.54519
C         -3.96127       -2.51863        2.77582
C         -4.40306       -3.66467        0.59310
C         -1.91610       -5.91180       -0.47945
H          0.52386       -5.52377       -1.49742
H          1.62428       -4.17103       -1.71416
H          2.26285       -5.78045       -1.37510
H          2.71044       -3.86240        1.83918
H          3.54226       -4.94757        0.72771
H          3.05426       -3.35628        0.18320
H          2.03064       -6.76947        1.01156
H          1.10010       -5.87945        2.21832
H          0.29042       -6.60978        0.83811
H         -4.40701       -5.15530        2.95818
H         -3.14395       -5.74950        1.89203
H         -2.71024       -4.89478        3.36704
H         -4.15631       -1.56925        2.27982
H         -4.89740       -2.83821        3.23311
H         -3.24031       -2.34569        3.57444
H         -4.08557       -4.42179       -0.12009
H         -5.41242       -3.91238        0.92061
H         -4.44283       -2.71071        0.06767
H         -1.91263       -5.04350       -1.13975
H         -1.28165       -6.69079       -0.90188
H         -2.93008       -6.30322       -0.39896
C          5.70208        2.91749       -0.88120
C          5.77617       -0.43028       -1.97585
C          3.61849       -1.39741       -2.71794
C          4.18521        0.95270       -3.36303
C          3.72657        1.84028        3.73837
C          5.85101        1.75667        2.46444
C          4.31418        3.74191        2.22215
H          6.34525        0.45738       -1.71157
H          5.86454       -1.14032       -1.15421
H          6.24288       -0.87067       -2.85659
H          2.60599       -1.21932       -3.07672
H          4.17427       -1.84548       -3.54119
H          3.57297       -2.12675       -1.91023
H          4.65345        0.59504       -4.27964
H          3.13994        1.17101       -3.58086
H          4.66627        1.88638       -3.08174
H          3.64323        0.75854        3.84037
H          4.31979        2.21021        4.57435
H          2.73198        2.27268        3.83736
H          5.90948        0.67137        2.53990
H          6.40700        2.05980        1.58078
H          6.35279        2.18471        3.33190
H          4.78735        4.05848        1.29585
H          4.81549        4.24885        3.04628
H          3.27841        4.07990        2.19765
H          4.70194        3.31853       -1.05023
H          6.27131        3.60905       -0.26023
H          6.21824        2.81402       -1.83545
