87
-129.18042129
P         -1.62342       -0.30454        0.13987
P          1.60955        0.36185       -0.17156
C         -1.42179        0.93722       -1.16492
C          1.30711       -0.71467       -1.57608
C         -0.52730        0.83491       -2.22963
C         -0.35135        1.94543       -3.07808
C         -1.09768        3.09101       -2.86446
C         -1.99282        3.16936       -1.82101
C         -2.14149        2.09300       -0.96863
C          2.10521       -1.81214       -1.78642
C          1.88763       -2.62492       -2.88143
C          0.86681       -2.32955       -3.76072
C          0.04692       -1.23061       -3.56299
C          0.27721       -0.39553       -2.45101
Cl         1.42655        1.64845        2.84879
Cl        -1.19216       -0.19700        3.34674
H         -2.56126        4.07062       -1.65965
H         -2.81842        2.15905       -0.13238
H          2.90784       -2.02749       -1.10097
H          2.51297       -3.48677       -3.04725
H         -0.96086        3.93356       -3.52103
H          0.69549       -2.96005       -4.61662
C         -0.64831       -4.65017       -0.77163
C         -1.40430       -3.92866       -1.68520
C         -1.69719       -2.59916       -1.40252
C         -1.24948       -2.02065       -0.23833
C         -0.54014       -2.75727        0.68231
C         -0.22433       -4.07416        0.40951
H         -0.40331       -5.67558       -0.99039
C         -1.86155       -4.56012       -2.95286
H         -2.26706       -2.01070       -2.10178
H         -0.27593       -2.30974        1.62722
H          0.34079       -4.65248        1.12208
C         -5.82540       -0.01902        1.86858
C         -4.85498        0.86607        2.29448
C         -3.57279        0.78127        1.78598
C         -3.26987       -0.18632        0.85645
C         -4.23610       -1.06824        0.42938
C         -5.52880       -1.00395        0.93684
H         -6.82616        0.04787        2.26019
H         -5.09507        1.62096        3.02519
H         -2.80257        1.45709        2.12230
H         -3.98580       -1.81667       -0.30333
C         -6.57863       -1.94462        0.45915
C          4.94226       -1.38313        2.39995
C          5.08325       -0.11712        1.86623
C          4.07921        0.41614        1.08031
C          2.94615       -0.32127        0.83001
C          2.80191       -1.58048        1.36474
C          3.79657       -2.13023        2.16287
H          5.72422       -1.80068        3.01101
H          5.97330        0.45703        2.06516
H          4.17022        1.40745        0.66753
H          1.90965       -2.14635        1.15891
C          3.63599       -3.50020        2.72173
C          2.64398        4.50938       -1.70356
C          3.32021        3.40621       -2.18685
C          3.01660        2.14602       -1.70570
C          2.04434        2.00392       -0.74384
C          1.37438        3.10058       -0.25422
C          1.66712        4.37399       -0.72658
H          2.86927        5.49017       -2.08635
H          4.07684        3.52517       -2.94495
H          3.52049        1.27051       -2.08449
H          0.61155        2.96956        0.49454
C          0.90972        5.55435       -0.22969
Pd         0.07614        0.37652        1.59017
C          0.63414        1.92599       -4.19529
C         -1.05273       -0.95448       -4.52834
H          1.34644        1.10743       -4.08764
H          0.13126        1.81366       -5.15648
H          1.20657        2.85428       -4.22279
H         -1.60151       -1.86694       -4.76537
H         -1.76762       -0.23653       -4.12465
H         -0.65845       -0.55011       -5.46135
H         -2.63401       -3.96163       -3.43777
H         -1.03220       -4.66960       -3.65281
H         -2.27806       -5.55113       -2.76691
H         -7.30872       -2.15056        1.24320
H         -7.11129       -1.52823       -0.39699
H         -6.14334       -2.89738        0.15401
H          3.82556       -4.25512        1.95732
H          4.32677       -3.67558        3.54756
H          2.62328       -3.65009        3.09915
H          0.60894        5.41732        0.81002
H          1.51291        6.46168       -0.28360
H          0.00776        5.71222       -0.82274
