105
-153.05999773
Cl         0.58611        3.71096        1.47487
Pd        -0.10168        1.99145        0.19804
P         -0.72645        0.24588       -1.29712
N          0.11243       -1.17448       -1.95092
C          0.19350       -2.50278       -1.54502
C         -0.14666       -2.97718       -0.24877
C          0.16654       -4.30857        0.10308
C         -0.00770       -4.74774        1.53924
C          0.78880       -6.01007        1.89985
C          0.56489       -7.10248        0.85030
C          1.01635       -6.62870       -0.54085
C          0.68490       -5.18804       -0.84997
C          0.93900       -4.72038       -2.13226
C          0.71764       -3.40958       -2.46575
H          0.96253       -3.05921       -3.45356
H          1.34585       -5.39934       -2.86268
H          2.10064       -6.76083       -0.63852
H          1.08271       -8.02896        1.13609
H          1.85713       -5.76443        1.94679
H          0.27988       -3.92008        2.20012
C         -0.73798       -2.10284        0.79963
C          0.08431       -1.11475        1.40094
C         -0.37573       -0.43441        2.52843
C         -1.62078       -0.69948        3.03694
C         -2.46282       -1.63493        2.44203
C         -3.81525       -1.87289        3.07340
C         -4.76242       -2.78402        2.27080
C         -3.99768       -3.90845        1.56464
C         -2.93801       -3.31889        0.62422
C         -2.02498       -2.33777        1.31560
H         -2.35379       -4.11469        0.14834
H         -4.68438       -4.57109        1.01910
H         -5.29508       -2.18736        1.52069
H         -4.29124       -0.90014        3.25115
H         -1.96759       -0.16741        3.90653
H          0.24931        0.31527        2.97780
N          1.24979       -0.75563        0.73038
P          1.80473        0.85939        0.95919
C          2.91902        1.32408       -0.36019
C          3.15661        2.65725       -0.59542
C          3.93091        3.03518       -1.67681
C          4.45661        2.07901       -2.53584
C          4.20771        0.73727       -2.27748
C          3.43421        0.36095       -1.19435
H          3.21968       -0.67825       -1.00425
H          4.61700       -0.01087       -2.93465
C          5.29613        2.48364       -3.69717
H          4.11918        4.07771       -1.86817
H          2.69677        3.39286        0.04577
C          2.59456        0.95008        2.56516
C          3.30382       -0.14638        2.99395
C          3.92514       -0.12267        4.23041
C          3.83212        0.99768        5.04566
C          3.11641        2.09703        4.59051
C          2.49768        2.06944        3.35555
H          1.93158        2.91400        3.00193
H          3.04705        2.97489        5.20997
C          4.52085        1.03494        6.36555
H          4.48608       -0.97672        4.56947
H          3.35855       -1.01823        2.36069
H          1.10592       -0.86081       -0.27298
H          0.33493       -0.97468       -2.91820
C         -0.59900        1.41902       -2.65695
C         -1.70580        1.93707       -3.28562
C         -1.54686        2.84719       -4.31416
C         -0.27889        3.23884       -4.72336
C          0.82592        2.71055       -4.06981
C          0.66410        1.80031       -3.04160
H          1.52010        1.40055       -2.52286
H          1.81377        3.02180       -4.36350
C         -0.10875        4.24397       -5.80867
H         -2.41034        3.26567       -4.80240
H         -2.68930        1.64008       -2.96101
C         -2.45958       -0.18079       -1.13659
C         -3.01381       -0.96261       -2.12198
C         -4.35938       -1.28257       -2.07273
C         -5.15644       -0.82081       -1.03461
C         -4.57709       -0.03428       -0.04765
C         -3.23256        0.28233       -0.09903
H         -2.78285        0.89124        0.66816
H         -5.18473        0.33143        0.76224
C         -6.60058       -1.18010       -0.98188
H         -4.79835       -1.89685       -2.84018
H         -2.38867       -1.32095       -2.92484
Cl        -2.03945        3.02859       -0.26147
H          0.57421       -7.26412       -1.31888
H          0.52329       -6.37026        2.90389
H         -0.50148       -7.35980        0.81970
H         -1.07046       -4.92368        1.73592
H         -3.50774       -4.54144        2.31483
H         -3.43452       -2.80149       -0.20317
H         -3.65417       -2.30263        4.06940
H         -5.54601       -3.19854        2.92055
H          5.19263        1.77761       -4.52236
H          5.00769        3.46850       -4.06731
H          6.34987        2.52393       -3.41811
H          3.98488        1.67095        7.07144
H          4.58723        0.03803        6.80351
H          5.53409        1.42567        6.26261
H         -0.11211        5.25613       -5.40199
H          0.83387        4.09687       -6.33774
H         -0.91400        4.17255       -6.54115
H         -6.72848       -2.25901       -0.88240
H         -7.09885       -0.70537       -0.13555
H         -7.11319       -0.86231       -1.89085
