64
-97.21480919
Cl        -1.59472       -1.26586       -2.61509
Cl         1.53007       -1.37892       -2.96933
P          1.91159       -0.64569        0.26646
C          2.09997       -2.31960        1.03852
C          3.69758       -0.27064       -0.08721
P         -1.24526       -0.11501        0.45728
C          1.29056        0.59371        1.45551
C         -0.13109        0.85368        1.54159
C         -0.33367        1.95251        2.47511
C          0.97399        2.39408        2.92700
C          1.97970        1.54752        2.30970
H         -1.29499        2.34959        2.80605
H          1.16603        3.19781        3.64117
Pd         0.15827       -0.93556       -1.25427
H          3.06017        1.61545        2.45023
C         -4.99513        2.13507       -0.86250
C         -4.03936        2.79121       -0.11338
C         -2.90055        2.11968        0.29045
C         -2.71268        0.80100       -0.05872
C         -3.66940        0.14524       -0.79988
C         -4.81226        0.81067       -1.20565
H         -5.88361        2.65652       -1.17949
H         -4.17936        3.82529        0.15605
H         -2.15090        2.62722        0.87068
H         -3.51514       -0.88731       -1.06769
H         -5.55584        0.29564       -1.79148
C         -2.60449       -3.92874        2.51675
C         -2.36657       -2.79044        3.26266
C         -1.96002       -1.62699        2.63390
C         -1.79233       -1.61479        1.26866
C         -2.03617       -2.74279        0.52006
C         -2.44228       -3.90697        1.14512
H         -2.92084       -4.83552        3.00605
H         -2.49601       -2.80762        4.33236
H         -1.76558       -0.72958        3.19971
H         -1.91741       -2.70014       -0.55092
H         -2.63321       -4.79315        0.56245
C          4.02993       -0.35493       -1.56106
H          3.89114        0.74099        0.29297
C          4.43869       -1.33088        0.75096
H          4.65351       -0.93334        1.75374
C          3.60076       -2.63066        0.88039
H          5.41817       -1.54337        0.29809
C          1.64184       -2.28787        2.48050
H          1.48447       -3.01538        0.45189
H          3.94492       -3.23108        1.73479
H          3.76247       -3.25876       -0.00766
H          2.23289       -1.57165        3.05475
H          0.59631       -1.98521        2.55885
H          1.74676       -3.26518        2.95750
H          5.09067       -0.16903       -1.74292
H          3.79869       -1.34877       -1.94746
H          3.46022        0.36515       -2.14987
Fe         0.83998        2.47853        0.86571
C          2.21971        3.18567       -0.50088
C          1.41972        4.27327        0.03637
C          0.02571        4.00230       -0.27031
C         -0.03230        2.73409       -0.97487
C          1.32006        2.23888       -1.13058
H          3.30903        3.11298       -0.46851
H          1.80284        5.15741        0.55087
H         -0.82388        4.64436       -0.02755
H         -0.92802        2.26657       -1.38845
H          1.60210        1.34149       -1.68297
