111
-148.55770214
P         -2.68108        1.79652        0.73576
P          0.19811        0.49602        0.46101
C         -1.70414        1.44470        2.22229
C         -0.42481        0.94647        2.09579
C         -3.68366        3.33973        0.93129
C         -3.03749        4.52524        0.24842
C         -2.23179        1.67790        3.47639
H         -3.23938        2.04804        3.57105
C         -1.47096        1.41963        4.60346
H         -1.88249        1.60147        5.58288
C         -0.18638        0.92809        4.47458
H          0.40570        0.72509        5.35177
C          0.33558        0.68573        3.21704
H          1.32975        0.28505        3.10272
Pd        -1.19430        1.62163       -1.01996
Cl        -2.74140        2.57955       -2.32962
Cl         0.33625        1.31389       -2.63335
C         -5.05005        2.92315        0.35738
C         -4.02467        0.57148        0.38275
H         -3.63486        5.43145        0.37231
H         -2.03980        4.71841        0.64960
H         -2.93037        4.34754       -0.82202
H         -5.06741        3.15780       -0.71599
H         -5.85519        3.52521        0.80570
H         -3.89891        0.27985       -0.66870
C         -5.31066        1.40251        0.55962
C         -3.92948       -0.63600        1.29011
H         -3.76798        3.52107        2.01019
H         -5.70472        1.23179        1.57086
H         -6.09427        1.04491       -0.12538
H         -2.98413       -1.16284        1.14972
H         -3.98538       -0.33820        2.33874
H         -4.74026       -1.34331        1.10089
C         -1.42763       -3.66597       -0.41560
C         -1.07111       -2.80811       -1.48961
C         -0.56501       -1.55776       -1.18410
C         -0.35585       -1.17230        0.11314
C         -0.57250       -2.04530        1.14639
C         -1.06362       -3.31897        0.91327
O         -2.22130       -4.81631       -0.65850
C         -1.22785       -3.17221       -2.97474
H         -0.34485       -0.85075       -1.96514
H         -0.37418       -1.71348        2.15120
C         -1.17672       -4.27299        2.11340
C          4.73533        0.59333        0.08990
C          4.10396       -0.42273        0.85204
C          2.72060       -0.42579        0.92010
C          1.98092        0.57546        0.34641
C          2.59177        1.61885       -0.29745
C          3.97057        1.67398       -0.41948
O          6.12403        0.50863       -0.19602
C          4.88608       -1.52911        1.57767
H          2.19680       -1.22805        1.41115
H          1.96871        2.37976       -0.73424
C          4.60857        2.86769       -1.14700
C         -1.46177       -4.67760       -3.18725
C         -2.40299       -2.37825       -3.57031
C          0.06635       -2.80288       -3.73321
C         -1.39707       -5.73304        1.68167
C          0.14008       -4.23378        2.92061
C         -2.33606       -3.82261        3.01795
C         -3.61150       -4.54747       -0.58035
H         -2.41221       -4.99235       -2.76291
H         -1.47572       -4.92720       -4.24793
H         -0.67397       -5.25987       -2.71062
H         -2.52429       -2.59843       -4.63050
H         -3.33716       -2.62170       -3.06784
H         -2.24074       -1.30566       -3.46723
H          0.92988       -3.28738       -3.27848
H          0.01093       -3.12137       -4.77380
H          0.24383       -1.72878       -3.73292
H         -0.62084       -6.04906        0.98563
H         -1.37815       -6.40383        2.54030
H         -2.35789       -5.85773        1.18800
H          0.98925       -4.47636        2.28220
H          0.31784       -3.25290        3.35843
H          0.11676       -4.95461        3.73749
H         -3.28422       -3.84711        2.48421
H         -2.42455       -4.47131        3.88899
H         -2.18102       -2.80419        3.37312
H         -3.88310       -3.77197       -1.29482
H         -4.16713       -5.45764       -0.80696
H         -3.87145       -4.20729        0.42065
C          6.42896       -0.22770       -1.37403
C          6.26561       -1.02465        2.03859
C          4.12954       -1.98669        2.84624
C          5.04697       -2.73656        0.64177
C          3.74401        4.13776       -0.97846
C          5.99876        3.19207       -0.57086
C          4.71597        2.54642       -2.64560
H          6.89326       -0.75489        1.19315
H          6.16004       -0.14316        2.67011
H          6.79222       -1.78948        2.60886
H          4.73733       -2.67657        3.43129
H          3.88628       -1.13478        3.48071
H          3.20480       -2.50649        2.60037
H          5.58802       -3.54355        1.13521
H          4.07331       -3.11975        0.33700
H          5.59300       -2.46770       -0.25926
H          4.25623        5.01047       -1.38294
H          2.79526        4.05235       -1.50614
H          3.53701        4.32926        0.07408
H          5.93599        3.37836        0.50072
H          6.69453        2.37139       -0.72627
H          6.42267        4.07693       -1.04501
H          5.15050        3.38150       -3.19437
H          3.73167        2.34097       -3.06591
H          5.33760        1.67121       -2.81776
H          5.51317       -0.58311       -1.84808
H          6.97592        0.40756       -2.07056
H          7.06169       -1.07836       -1.12149
