105
-153.06876701
Cl         0.49933        3.31748        2.24353
Pd        -0.16963        1.82379        0.70464
P         -0.74511        0.46369       -1.15132
N          0.41758       -0.79487       -1.54966
C          0.49048       -2.18250       -1.34054
C         -0.03375       -2.84270       -0.19648
C          0.26301       -4.20563        0.01353
C         -0.07112       -4.85072        1.33781
C         -0.23536       -6.37299        1.23496
C          1.00324       -6.99322        0.58004
C          1.24202       -6.41024       -0.82434
C          0.96741       -4.92930       -0.95289
C          1.43886       -4.27030       -2.08133
C          1.23313       -2.92658       -2.25596
H          1.63762       -2.42272       -3.11683
H          1.99251       -4.82854       -2.81736
H          2.27503       -6.60348       -1.14050
H          1.88014       -6.79724        1.20995
H         -0.42730       -6.81839        2.22137
H          0.73623       -4.61699        2.04234
C         -0.71591       -2.07307        0.87145
C          0.04984       -1.14419        1.61733
C         -0.55448       -0.46174        2.67188
C         -1.87245       -0.67999        2.98025
C         -2.64372       -1.58803        2.26215
C         -4.07900       -1.79367        2.69169
C         -4.89850       -2.76923        1.82458
C         -4.02278       -3.88614        1.24667
C         -2.88521       -3.27957        0.41554
C         -2.06407       -2.29176        1.20368
H         -2.24766       -4.06462       -0.00651
H         -4.61897       -4.58970        0.64848
H         -5.36634       -2.22004        0.99863
H         -4.57316       -0.81438        2.72422
H         -2.32795       -0.13985        3.79286
H          0.02499        0.25529        3.22562
N          1.36869       -0.88950        1.24197
P          1.89297        0.78273        1.09528
C          2.73098        1.03884       -0.46863
C          2.42768        2.15150       -1.21754
C          2.92811        2.27255       -2.49991
C          3.73524        1.28097       -3.03942
C          4.04077        0.17151       -2.26296
C          3.54557        0.05388       -0.97683
H          3.76326       -0.81857       -0.38102
H          4.65941       -0.60658       -2.67679
C          4.22300        1.38254       -4.44252
H          2.67363        3.13013       -3.09917
H          1.78426        2.91399       -0.80808
C          2.87112        1.31967        2.48985
C          2.90287        0.53369        3.61626
C          3.64163        0.93698        4.71432
C          4.34629        2.13337        4.68852
C          4.30957        2.90645        3.53517
C          3.57062        2.50098        2.43827
H          3.52982        3.10300        1.54430
H          4.86127        3.83034        3.50213
C          5.15920        2.55882        5.86149
H          3.67493        0.32367        5.59849
H          2.35570       -0.39542        3.62531
H          1.67038       -1.34816        0.38962
H          1.27905       -0.30081       -1.75252
C         -0.60715        1.65289       -2.49249
C         -1.06527        2.94175       -2.36232
C         -0.91955        3.83558       -3.40555
C         -0.32420        3.44049       -4.59597
C          0.12616        2.13283       -4.71445
C         -0.02062        1.24209       -3.66628
H          0.33028        0.22688       -3.75532
H          0.59892        1.81829       -5.62913
C         -0.13314        4.41056       -5.70937
H         -1.26611        4.84939       -3.29986
H         -1.53503        3.24239       -1.44153
C         -2.38765       -0.23420       -1.32416
C         -3.46939        0.19547       -0.59411
C         -4.72324       -0.32932       -0.84059
C         -4.90892       -1.27810       -1.83725
C         -3.80876       -1.69352       -2.57511
C         -2.55305       -1.16997       -2.31855
H         -1.69441       -1.48776       -2.88905
H         -3.93922       -2.43435       -3.34523
C         -6.25132       -1.87261       -2.08488
H         -5.56942        0.00453       -0.26469
H         -3.33497        0.96333        0.14690
Cl        -2.22398        2.71794        0.59849
H          0.61297       -6.93837       -1.55096
H         -1.12083       -6.60169        0.62869
H          0.91216       -8.08778        0.53790
H         -0.96692       -4.39690        1.77476
H         -3.59832       -4.47781        2.06727
H         -3.30805       -2.76277       -0.44969
H         -4.07267       -2.14863        3.72935
H         -5.73428       -3.19193        2.39955
H          4.31384        2.42408       -4.75394
H          5.20323        0.91682       -4.55316
H          3.53428        0.88602       -5.12756
H          6.16796        2.14780        5.80335
H          5.24060        3.64552        5.91103
H          4.70993        2.21847        6.79548
H         -0.89551        5.19052       -5.68811
H          0.84321        4.89211       -5.63956
H         -0.19521        3.91383       -6.67864
H         -7.04513       -1.23560       -1.69247
H         -6.42994       -2.00449       -3.15293
H         -6.33651       -2.84910       -1.60591
