111
-148.55475139
P         -2.59397        1.96611        0.15761
P          0.15026        0.43075        0.48319
C         -1.79881        1.88259        1.78598
C         -0.57793        1.25572        1.91231
C         -3.46967        3.57696       -0.09652
C         -2.67962        4.51142       -0.98646
C         -2.40693        2.43305        2.89621
H         -3.37125        2.90372        2.79818
C         -1.78304        2.36197        4.12988
H         -2.25683        2.79269        4.99686
C         -0.55694        1.73691        4.25242
H         -0.07311        1.67851        5.21350
C          0.04479        1.17595        3.14048
H          0.99192        0.66594        3.22240
Pd        -0.99123        1.26692       -1.35104
Cl        -2.36351        1.96162       -2.98346
Cl         0.64290        0.50638       -2.69154
C         -4.82985        3.13404       -0.66619
C         -4.00421        0.78531       -0.05698
H         -1.69580        4.72569       -0.56234
H         -2.52169        4.07017       -1.97113
H         -3.20116        5.46029       -1.13173
H         -4.76542        3.12339       -1.76306
H         -5.60803        3.87331       -0.42225
H         -3.83128        0.27801       -1.01568
C         -5.22632        1.71804       -0.15763
C         -4.06674       -0.21583        1.07626
H         -3.60287        4.01937        0.89872
H         -5.68873        1.80277        0.83538
H         -5.99667        1.27072       -0.80395
H         -4.91571       -0.89425        0.96449
H         -3.15768       -0.81857        1.12145
H         -4.17068        0.29222        2.03677
C         -1.48962       -3.81602        0.34457
C         -0.95773       -3.22583       -0.83012
C         -0.46000       -1.93834       -0.74513
C         -0.41133       -1.27157        0.45017
C         -0.82020       -1.87986        1.60769
C         -1.32976       -3.16759        1.59629
O         -2.22119       -5.03041        0.26042
C         -0.96535       -3.92994       -2.19530
H         -0.12390       -1.41912       -1.62521
H         -0.76163       -1.32064        2.52476
C         -1.74422       -3.81679        2.92583
C          4.67262        0.82570        0.12410
C          4.03032       -0.36739       -0.29383
C          2.65387       -0.44793       -0.16810
C          1.93205        0.56695        0.40294
C          2.55894        1.68085        0.89760
C          3.93519        1.82018        0.81701
O          6.04083        1.04405       -0.18791
C          4.78821       -1.54572       -0.92448
H          2.11937       -1.30480       -0.53860
H          1.95229        2.45041        1.34293
C          4.60096        3.05066        1.45317
C          0.23101       -3.46340       -3.05639
C         -0.83452       -5.45518       -2.03534
C         -2.26580       -3.58157       -2.93548
C         -3.20508       -3.45495        3.23503
C         -1.57485       -5.34604        2.87445
C         -0.85498       -3.30470        4.08183
C         -3.61537       -4.84993        0.04409
H          0.13605       -2.41915       -3.34994
H          1.16839       -3.58358       -2.51469
H          0.29809       -4.04761       -3.97378
H          0.06518       -5.70601       -1.47439
H         -1.68569       -5.87329       -1.50395
H         -0.77777       -5.94754       -3.00582
H         -3.13833       -3.91026       -2.37595
H         -2.35038       -2.50439       -3.07831
H         -2.29611       -4.05557       -3.91614
H         -3.52868       -3.90559        4.17291
H         -3.32484       -2.37527        3.32146
H         -3.87213       -3.79974        2.44853
H         -0.55100       -5.60989        2.61159
H         -1.80508       -5.79856        3.83867
H         -2.23445       -5.79410        2.13564
H         -1.05978       -3.85471        5.00007
H          0.20078       -3.43181        3.84381
H         -1.03463       -2.25178        4.29396
H         -3.85656       -3.78806       -0.02020
H         -3.90927       -5.34564       -0.88096
H         -4.17450       -5.30039        0.86401
C          6.25017        1.69681       -1.43400
C          6.22070       -1.65081       -0.37082
C          4.08312       -2.88270       -0.60015
C          4.81964       -1.36428       -2.44979
C          4.64395        4.19382        0.42813
C          3.80105        3.52364        2.68856
C          6.02388        2.72237        1.94116
H          6.20689       -1.73360        0.71541
H          6.73243       -2.52552       -0.77146
H          6.81250       -0.77689       -0.63058
H          4.68150       -3.72794       -0.93942
H          3.93035       -2.98981        0.47342
H          3.11549       -2.95929       -1.09285
H          5.32440       -0.44146       -2.72599
H          5.34039       -2.19130       -2.93164
H          3.80795       -1.32055       -2.85273
H          3.63840        4.45309        0.09773
H          5.09923        5.08606        0.85719
H          5.21880        3.91326       -0.45119
H          4.33535        4.31339        3.21621
H          2.82866        3.92707        2.41029
H          3.64439        2.70160        3.38658
H          6.00744        1.88184        2.63414
H          6.46948        3.57523        2.45258
H          6.67661        2.45855        1.11278
H          6.81069        2.61782       -1.27444
H          6.83298        1.05280       -2.09226
H          5.29468        1.92891       -1.90621
