45
-71.81577124
C          2.28305        1.26344        2.43966
P          1.50535        0.89514        0.83179
P         -0.99344        0.17707       -0.91552
C         -0.33160       -0.33467       -2.53734
Cl         1.45379       -2.01355        2.23208
H          2.98963        2.08166        2.33429
H         -0.84584        0.19751       -3.33249
Cl        -1.25839       -2.70483        0.48420
C          0.46088        2.23065        0.21493
C         -0.62135        1.90907       -0.57449
C         -1.41775        2.90395       -1.10296
C         -1.12330        4.23005       -0.83898
C         -0.03401        4.55318       -0.05266
C          0.76325        3.55182        0.47345
H         -2.26347        2.63579       -1.71563
H         -1.74331        5.01028       -1.24884
H          0.19764        5.58610        0.14891
H          1.62276        3.79251        1.07755
Pd         0.11656       -0.95640        0.77208
H         -0.46892       -1.40338       -2.67505
H          2.81132        0.38590        2.80145
H          0.72937       -0.10860       -2.59103
C         -5.43577       -0.62568       -0.34846
C         -4.73737        0.13320        0.56961
C         -3.38840        0.37491        0.37892
C         -2.75036       -0.13893       -0.72721
C         -3.44119       -0.90023       -1.64227
C         -4.78980       -1.14358       -1.45367
H         -6.48595       -0.81744       -0.20013
H         -5.23961        0.53373        1.43480
H         -2.82674        0.96125        1.08947
H         -2.92499       -1.30818       -2.49593
H         -5.33393       -1.74093       -2.16671
C          4.48439       -0.35088       -2.36490
C          3.81713        0.85318       -2.48071
C          2.91962        1.24061       -1.50213
C          2.70191        0.42399       -0.41665
C          3.35595       -0.78058       -0.30150
C          4.25440       -1.17059       -1.27722
H          5.18337       -0.65349       -3.12744
H          3.99330        1.48945       -3.33241
H          2.38428        2.17300       -1.58152
H          3.13428       -1.41843        0.53940
H          4.76736       -2.11435       -1.19140
H          1.52181        1.54017        3.16348
