64
-97.21512748
Cl        -1.60720       -1.24372       -2.60023
Cl         1.52328       -1.22737       -2.99187
P          1.91517       -0.66097        0.26811
C          2.08783       -2.33496        1.04262
C          3.70581       -0.29477       -0.07024
P         -1.26145       -0.13491        0.46613
C          1.28599        0.58596        1.44597
C         -0.13767        0.83597        1.53768
C         -0.33058        1.96409        2.43662
C          0.97970        2.40633        2.88264
C          1.98338        1.52971        2.30492
H         -1.28956        2.37871        2.75292
H          1.17325        3.22308        3.58194
Pd         0.15279       -0.92139       -1.24622
H          3.06395        1.59395        2.44566
C         -5.01227        2.10360       -0.86529
C         -4.03686        2.77773       -0.15855
C         -2.89734        2.11037        0.25015
C         -2.72925        0.77749       -0.05164
C         -3.70533        0.10367       -0.75014
C         -4.84872        0.76524       -1.16092
H         -5.90118        2.62192       -1.18617
H         -4.16207        3.82261        0.07396
H         -2.13231        2.63164        0.79732
H         -3.56580       -0.94025       -0.98003
H         -5.60778        0.23619       -1.71343
C         -2.59875       -3.95716        2.52214
C         -2.37746       -2.81576        3.26848
C         -1.97758       -1.64905        2.64143
C         -1.79984       -1.63700        1.27748
C         -2.02705       -2.76805        0.52823
C         -2.42655       -3.93543        1.15170
H         -2.90994       -4.86640        3.01017
H         -2.51466       -2.83309        4.33721
H         -1.79615       -0.74907        3.20753
H         -1.90151       -2.72501       -0.54202
H         -2.60470       -4.82408        0.56874
C          4.04813       -0.37483       -1.54192
H          3.90268        0.71420        0.31525
C          4.43475       -1.36246        0.76923
H          4.64704       -0.96893        1.77413
C          3.58703       -2.65661        0.89111
H          5.41514       -1.58078        0.32115
C          1.62441       -2.29748        2.48274
H          1.46962       -3.02699        0.45441
H          3.92262       -3.26166        1.74568
H          3.74863       -3.28352        0.00219
H          2.21902       -1.58525        3.05829
H          0.58114       -1.98607        2.55664
H          1.71943       -3.27494        2.96151
H          5.11245       -0.20139       -1.71497
H          3.80642       -1.36314       -1.93622
H          3.49199        0.35642       -2.13010
Fe         0.86236        2.46887        0.84389
C          2.25353        3.17808       -0.50778
C          1.45932        4.26842        0.03252
C          0.06279        4.01566       -0.27936
C         -0.00811        2.74295       -0.97467
C          1.34014        2.22989       -1.11606
H          3.34206        3.09484       -0.47430
H          1.85050        5.15284        0.54037
H         -0.77966        4.66859       -0.04102
H         -0.90722        2.28133       -1.38810
H          1.61283        1.32851       -1.66788
