58
-89.86920507
P          1.68524        0.28715        0.78520
C          3.12301        1.25256        0.31784
C          3.05108        2.62625        0.34862
C          4.15057        3.37940       -0.02353
C          5.31266        2.74957       -0.42381
C          5.37869        1.37044       -0.45428
C          4.27774        0.62015       -0.08242
H          4.31076       -0.45709       -0.10814
H          2.13280        3.10345        0.65320
C          1.92127       -1.45444        0.40004
C          2.14460       -2.39249        1.38209
C          2.28849       -3.72450        1.03835
C          2.21724       -4.10752       -0.28656
C          2.01265       -3.16134       -1.27070
C          1.86796       -1.83137       -0.92292
H          1.71641       -1.07478       -1.67670
H          2.22098       -2.08388        2.41156
C          1.34380        0.58867        2.56395
C          0.15572       -0.18199        3.11541
C         -1.19635        0.35880        2.68070
P         -1.63787        0.02334        0.92872
C         -1.60480       -1.72721        0.51362
C         -1.54653       -2.70453        1.48084
C         -1.48945       -4.03532        1.10837
C         -1.50040       -4.37932       -0.22905
C         -1.57797       -3.39715       -1.19609
C         -1.63315       -2.06787       -0.82018
H         -1.69950       -1.28503       -1.55965
H         -1.56116       -2.43036        2.52261
C         -3.26330        0.72231        0.62872
C         -4.30875       -0.09375        0.26152
C         -5.55625        0.45303        0.02079
C         -5.74596        1.81498        0.14825
C         -4.69313        2.63014        0.51474
C         -3.44653        2.08008        0.75560
H         -2.61169        2.70540        1.03068
H         -4.14350       -1.15408        0.15961
Pd        -0.08729        0.79262       -0.61457
Cl         1.42090        1.33230       -2.19148
Cl        -1.82475        1.34512       -1.92741
H         -2.00595       -0.07260        3.27467
H         -1.24289        1.43944        2.82662
H          0.23824       -1.23598        2.82561
H          0.20585       -0.18097        4.21554
H          2.26606        0.32764        3.08898
H          1.20199        1.66305        2.69384
H          4.09721        4.45553       -0.00548
H          6.28391        0.87891       -0.77086
H          2.45596       -4.46294        1.80514
H          1.96191       -3.45690       -2.30567
H         -1.43590       -4.80326        1.86250
H         -1.59109       -3.66341       -2.24012
H         -6.37655       -0.18273       -0.26936
H         -4.83964        3.69364        0.60820
H          6.16855        3.33562       -0.71657
H          2.32534       -5.14622       -0.55315
H         -1.45158       -5.41639       -0.51843
H         -6.71660        2.24307       -0.04229
