105
-153.06935110
Cl         0.53906        2.15203        2.97449
Pd        -0.35024        1.32660        1.07397
P         -1.23706        0.75850       -0.98851
N         -0.20815       -0.34983       -1.87984
C          0.31373       -1.61595       -1.64815
C          0.23450       -2.30082       -0.40975
C          0.91292       -3.52620       -0.24896
C          0.82414       -4.23029        1.08537
C          1.33125       -5.68113        1.07917
C          2.62807       -5.80842        0.27454
C          2.40841       -5.36434       -1.17936
C          1.64400       -4.07109       -1.30629
C          1.66927       -3.40705       -2.52511
C          1.02092       -2.21139       -2.69281
H          1.08078       -1.69622       -3.63582
H          2.22660       -3.83551       -3.34094
H          3.37210       -5.25818       -1.69398
H          3.40256       -5.18188        0.73440
H          1.47279       -6.04962        2.10500
H          1.38968       -3.64564        1.82042
C         -0.67276       -1.86763        0.68000
C         -0.13792       -1.32000        1.88269
C         -0.99238       -1.16897        2.98139
C         -2.31772       -1.51016        2.89564
C         -2.85028       -2.05234        1.73182
C         -4.29799       -2.46488        1.71824
C         -4.56589       -3.62809        0.75295
C         -4.01723       -3.30118       -0.63926
C         -2.50962       -2.99221       -0.60296
C         -2.02539       -2.25002        0.62313
H         -1.94714       -3.93087       -0.67422
H         -4.55657       -2.43558       -1.03814
H         -5.63882       -3.86335        0.70796
H         -4.90835       -1.59896        1.43727
H         -2.96331       -1.36390        3.74489
H         -0.60119       -0.73947        3.88684
N          1.18620       -0.86600        1.97580
P          1.74571        0.20571        0.68335
C          2.92580       -0.66565       -0.35049
C          3.25491       -0.19916       -1.60052
C          4.20342       -0.86958       -2.35119
C          4.83234       -2.00172       -1.84949
C          4.51307       -2.43278       -0.56915
C          3.56078       -1.76332        0.17774
H          3.30056       -2.09303        1.17075
H          5.01039       -3.29684       -0.16316
C          5.85723       -2.71941       -2.65636
H          4.46054       -0.51703       -3.33539
H          2.77148        0.68407       -1.98346
C          2.69634        1.59769        1.29955
C          3.54599        1.44225        2.36759
C          4.28316        2.52298        2.81699
C          4.18103        3.75827        2.19057
C          3.31902        3.89121        1.11008
C          2.58323        2.81009        0.66058
H          1.91405        2.90888       -0.17989
H          3.22344        4.84785        0.62554
C          4.94852        4.92988        2.69611
H          4.94099        2.41373        3.66220
H          3.62961        0.47934        2.84526
H          1.43055       -0.40758        2.84477
H         -0.22304       -0.03410       -2.84170
C         -1.01411        2.37221       -1.73978
C         -2.01207        3.31522       -1.67726
C         -1.79770        4.57593       -2.20391
C         -0.58221        4.89960       -2.79270
C          0.41908        3.93836       -2.83009
C          0.20076        2.67744       -2.30569
H          0.97535        1.92911       -2.32805
H          1.37143        4.18454       -3.26784
C         -0.34009        6.26743       -3.32917
H         -2.57275        5.32133       -2.15142
H         -2.94742        3.06673       -1.20225
C         -2.94506        0.29819       -1.30027
C         -3.26038       -0.21638       -2.53601
C         -4.57495       -0.52106       -2.84311
C         -5.58377       -0.31266       -1.91222
C         -5.24930        0.22504       -0.67727
C         -3.93577        0.52921       -0.37649
H         -3.67972        0.97395        0.56922
H         -6.02625        0.41168        0.04432
C         -7.00102       -0.62770       -2.24219
H         -4.82440       -0.92391       -3.80981
H         -2.47674       -0.37461       -3.25935
Cl        -2.32723        2.24079        1.63001
H          1.86733       -6.14502       -1.72718
H          0.56619       -6.33155        0.63682
H          3.01569       -6.83618        0.31719
H         -0.21659       -4.20160        1.43167
H         -4.22811       -4.12095       -1.34024
H         -2.22147       -2.41863       -1.49198
H         -4.61186       -2.72998        2.73585
H         -4.07836       -4.53500        1.13230
H          5.89693       -3.77697       -2.39139
H          5.63426       -2.65447       -3.72230
H          6.84793       -2.29342       -2.49226
H          5.89638        4.61907        3.13773
H          5.17274        5.63121        1.89116
H          4.38036        5.46364        3.45912
H         -1.26385        6.71460       -3.69899
H          0.06370        6.92083       -2.55460
H          0.37109        6.24604       -4.15612
H         -7.50711        0.24728       -2.65223
H         -7.06543       -1.43016       -2.97843
H         -7.54865       -0.94893       -1.35497
