111
-148.55664466
P         -1.69694        2.76914        0.05996
P         -0.52059       -0.11909        0.54415
C         -1.66261        2.07894        1.73943
C         -1.21364        0.79011        1.93746
C         -0.56289        4.22161       -0.08659
C          0.58719        3.90811       -1.02019
C         -2.05659        2.84220        2.81975
H         -2.37289        3.86065        2.66404
C         -2.02121        2.30226        4.09393
H         -2.33221        2.89657        4.93754
C         -1.58230        1.00611        4.28700
H         -1.54947        0.58862        5.27986
C         -1.16713        0.25016        3.20536
H         -0.78937       -0.75120        3.34047
Pd        -1.33854        0.95724       -1.32529
Cl        -1.95599        2.26674       -3.03821
Cl        -0.91951       -0.89082       -2.53173
C         -1.48981        5.34965       -0.58313
C         -3.30938        3.56668       -0.37794
H          0.21630        3.64371       -2.01250
H          1.25644        4.76437       -1.13245
H          1.17649        3.06318       -0.65831
H         -1.37092        5.44779       -1.67089
H         -1.17336        6.31719       -0.16511
H         -3.49239        3.30879       -1.42949
C         -2.98394        5.06611       -0.25504
C         -4.45405        3.08413        0.48751
H         -0.20326        4.43155        0.92926
H         -3.20643        5.39562        0.76916
H         -3.64826        5.65589       -0.90512
H         -4.28517        3.32912        1.53646
H         -5.39862        3.54650        0.19207
H         -4.57142        2.00014        0.41941
C         -0.82762       -4.65489        0.69684
C          0.33495       -4.00918        1.19031
C          0.39311       -2.62679        1.12667
C         -0.67127       -1.89505        0.66865
C         -1.83811       -2.50720        0.29444
C         -1.96240       -3.88665        0.33005
O         -0.84086       -6.06557        0.53207
C          1.54156       -4.78145        1.74632
H          1.28573       -2.09886        1.41561
H         -2.64742       -1.88824       -0.05344
C         -3.29909       -4.52573       -0.07720
C          3.73554        1.32514       -0.17265
C          3.16486        0.35091       -1.03145
C          1.86779       -0.06237       -0.78153
C          1.18157        0.38762        0.31425
C          1.76241        1.25325        1.20302
C          3.05334        1.71434        1.00881
O          4.96755        1.94237       -0.51689
C          3.90198       -0.22407       -2.25001
H          1.35006       -0.70940       -1.46847
H          1.18155        1.58498        2.04531
C          3.67253        2.65887        2.05053
C          2.27749       -3.94439        2.81746
C          1.09950       -6.08967        2.42689
C          2.52219       -5.08267        0.60265
C         -3.29964       -4.77296       -1.59356
C         -3.53889       -5.84571        0.67789
C         -4.47936       -3.58980        0.26932
C         -0.38143       -6.50340       -0.74077
H          3.05331       -4.53513        3.30405
H          2.76538       -3.07264        2.38394
H          1.58462       -3.60362        3.58639
H          0.37111       -5.88680        3.21127
H          0.64161       -6.77254        1.71581
H          1.94849       -6.60367        2.87689
H          3.39462       -5.62357        0.96832
H          2.05308       -5.68530       -0.17129
H          2.86759       -4.15907        0.13888
H         -2.49908       -5.44918       -1.88325
H         -4.24363       -5.20983       -1.91814
H         -3.15502       -3.83861       -2.13552
H         -4.51558       -6.26386        0.43559
H         -2.79021       -6.59134        0.42270
H         -3.49632       -5.68483        1.75458
H         -5.43242       -4.09065        0.10066
H         -4.44042       -3.28805        1.31568
H         -4.47734       -2.69250       -0.34761
H          0.48342       -7.15436       -0.61406
H         -1.16639       -7.07409       -1.23672
H         -0.10619       -5.64870       -1.36008
C          4.82760        3.10600       -1.32296
C          3.43681       -1.67166       -2.53088
C          3.59120        0.63888       -3.48248
C          5.42079       -0.28170       -2.00691
C          3.09817        2.37219        3.45683
C          5.19671        2.46242        2.13906
C          3.34564        4.11304        1.67793
H          2.40291       -1.70544       -2.87083
H          4.04462       -2.12900       -3.31118
H          3.52328       -2.28640       -1.63545
H          2.51922        0.65797       -3.67817
H          3.91859        1.66570       -3.33808
H          4.08948        0.24766       -4.36901
H          5.93472       -0.74769       -2.84727
H          5.84051        0.71225       -1.87529
H          5.64374       -0.85923       -1.11037
H          2.04593        2.64448        3.52625
H          3.19742        1.31657        3.70838
H          3.62748        2.94829        4.21548
H          5.68560        2.72495        1.20423
H          5.62744        3.08567        2.92233
H          5.43723        1.42335        2.36145
H          2.26796        4.27193        1.65619
H          3.73743        4.36703        0.69607
H          3.77353        4.80691        2.40099
H          5.35013        2.96213       -2.26848
H          3.77425        3.31045       -1.51794
H          5.27535        3.95926       -0.81377
