105
-153.05918372
Cl         0.58273        3.66133        1.48396
Pd        -0.10825        1.94690        0.19369
P         -0.76592        0.22982       -1.30942
N          0.06908       -1.19201       -1.96202
C          0.16010       -2.51651       -1.54611
C         -0.14596       -2.97431       -0.23613
C          0.20423       -4.29078        0.13628
C          0.11032       -4.69069        1.59200
C          0.94703       -5.92899        1.94552
C          0.69378       -7.05302        0.93665
C          1.07036       -6.61014       -0.48669
C          0.70579       -5.18188       -0.81508
C          0.91238       -4.73660       -2.11416
C          0.66786       -3.43420       -2.46529
H          0.88334       -3.09868       -3.46504
H          1.30577       -5.42472       -2.84336
H          2.15015       -6.73229       -0.63441
H          1.24098       -7.96263        1.22185
H          2.01157       -5.66339        1.93398
H          0.41981       -3.83933        2.21169
C         -0.73868       -2.09272        0.80468
C          0.08862       -1.11027        1.40817
C         -0.36830       -0.43205        2.53823
C         -1.61504       -0.69509        3.04430
C         -2.45877       -1.62502        2.44281
C         -3.81660       -1.86502        3.04771
C         -4.40863       -3.22593        2.65355
C         -4.36348       -3.40650        1.13324
C         -2.92614       -3.30858        0.59129
C         -2.03065       -2.32229        1.30966
H         -2.46265       -4.29953        0.61944
H         -4.98324       -2.63283        0.66612
H         -5.43490       -3.33396        3.03243
H         -4.49032       -1.06040        2.73068
H         -1.96278       -0.16231        3.91299
H          0.25886        0.31440        2.99003
N          1.25036       -0.75305        0.72967
P          1.81773        0.85772        0.96770
C          2.92340        1.32579       -0.35763
C          3.15413        2.65948       -0.59671
C          3.91878        3.03879       -1.68449
C          4.44168        2.08293       -2.54592
C          4.19874        0.74090       -2.28427
C          3.43493        0.36320       -1.19474
H          3.22448       -0.67640       -1.00204
H          4.60471       -0.00625       -2.94465
C          5.26791        2.48435       -3.71791
H          4.10052        4.08190       -1.87885
H          2.69546        3.39426        0.04620
C          2.61268        0.93706        2.57130
C          3.31993       -0.16325        2.99357
C          3.94350       -0.14668        4.22898
C          3.85460        0.97022        5.04947
C          3.14057        2.07341        4.60090
C          2.51942        2.05296        3.36697
H          1.95330        2.89981        3.01872
H          3.07383        2.94824        5.22490
C          4.54525        0.99929        6.36856
H          4.50277       -1.00370        4.56330
H          3.37100       -1.03242        2.35634
H          1.09840       -0.85889       -0.27302
H          0.25655       -1.00499       -2.93928
C         -0.62308        1.40948       -2.66138
C         -1.72275        1.94226       -3.29023
C         -1.55138        2.85809       -4.31170
C         -0.27819        3.24074       -4.71329
C          0.81925        2.69779       -4.05932
C          0.64513        1.78178       -3.03823
H          1.49542        1.37068       -2.51875
H          1.81102        3.00220       -4.34687
C         -0.09454        4.25174       -5.79092
H         -2.40904        3.28818       -4.80011
H         -2.71012        1.65212       -2.97116
C         -2.50309       -0.17863       -1.15406
C         -3.06279       -0.95570       -2.14010
C         -4.41521       -1.24685       -2.10381
C         -5.21331       -0.76185       -1.07688
C         -4.62936        0.02292       -0.09171
C         -3.27746        0.30895       -0.12865
H         -2.82495        0.91962        0.63547
H         -5.24183        0.41544        0.70183
C         -6.67393       -1.05079       -1.05282
H         -4.85940       -1.85041       -2.87671
H         -2.43754       -1.32828       -2.93639
Cl        -2.01453        3.05059       -0.25219
H          0.59866       -7.27023       -1.22583
H          0.73734       -6.26704        2.97024
H         -0.36804       -7.32884        0.96381
H         -0.93606       -4.87607        1.85451
H         -4.82462       -4.36077        0.84247
H         -2.94387       -3.03996       -0.47208
H         -3.74650       -1.77902        4.13959
H         -3.82991       -4.02630        3.13170
H          6.33113        2.39010       -3.49298
H          5.04928        1.85770       -4.58380
H          5.07476        3.51968       -4.00230
H          4.01241        1.63396        7.07803
H          4.60880        0.00021        6.80200
H          5.55968        1.38700        6.26596
H         -0.89782        4.19321       -6.52669
H         -0.08960        5.26102       -5.37714
H          0.84850        4.09922       -6.31771
H         -7.21957       -0.33718       -1.67158
H         -6.88226       -2.05286       -1.43056
H         -7.07226       -0.98990       -0.03900
