100
-131.97303911
C         -1.61641        3.85472       -1.38302
C         -2.33782        2.57896       -1.45159
C         -0.22239        3.57976       -1.41787
C         -0.01292        2.10968       -1.53265
C          1.16747        1.56138       -2.26356
C         -1.39045        1.50959       -1.57543
C         -1.78075        0.12142       -2.04946
C         -0.83987       -0.49051       -3.06837
Cl         1.04023       -0.42840        2.69759
Cl        -1.77708       -1.66245        2.24160
C          3.26760        0.60209       -3.85369
C          2.51647        1.67794       -4.28431
C          2.98885        0.01614       -2.62729
C          1.49286        2.15348       -3.50374
C          1.95445        0.46801       -1.84212
H         -3.42087        2.47013       -1.53470
H          0.57079        4.32941       -1.46763
H          0.09634       -0.78802       -2.59780
H         -1.26711       -1.37991       -3.53717
H         -0.60420        0.21843       -3.86546
H          4.07840        0.23055       -4.45871
H          2.73455        2.14296       -5.23211
H          3.61380       -0.78959       -2.27829
H          0.89959        2.98424       -3.84520
H         -2.07365        4.84713       -1.35987
P          1.85813       -0.26354       -0.19178
H         -2.77227        0.20511       -2.51100
P         -2.03671       -1.00066       -0.60473
H         -2.95837       -2.87520       -1.85374
C         -1.96949       -3.83979       -0.17739
C         -2.07357       -2.73632       -1.23533
C         -3.26486       -4.01629        0.61482
H         -3.33957        0.59018        0.55456
C         -4.86988       -0.36610       -0.61018
C         -3.58292       -0.41909        0.22466
H         -4.61044        0.02610       -1.60829
C         -5.50726       -1.74343       -0.79145
H          3.58845       -1.90028       -0.56743
H          2.74113        0.65148        1.86854
C          3.64832        3.20956        1.34285
C          2.77078        2.29335        0.47079
C          2.99701        0.81539        0.81631
C          4.47731        0.45393        0.61978
C          5.38795        1.36187        1.47293
C          5.13684        2.85202        1.16893
H          3.36394        3.08867        2.39547
H          3.46553        4.26727        1.10690
H          3.02904        2.44842       -0.58416
H          1.70833        2.55170        0.54608
H          4.65376       -0.60313        0.85632
H          4.73111        0.56657       -0.44094
H          5.19353        1.17132        2.53575
H          6.44547        1.10570        1.31829
H          5.44363        3.06839        0.13785
H          5.76756        3.49124        1.80287
C          2.37613       -4.29081       -1.27738
C          1.77945       -2.87095       -1.20693
C          2.55453       -1.99255       -0.21627
C          2.58116       -2.64208        1.17631
C          3.18789       -4.05724        1.11737
C          2.41498       -4.94080        0.11911
H          3.39524       -4.23450       -1.67967
H          1.81592       -4.91586       -1.98665
H          0.73668       -2.92788       -0.87785
H          1.75058       -2.40263       -2.20003
H          3.11646       -2.00400        1.89200
H          1.55733       -2.70938        1.56091
H          4.23778       -3.98907        0.80667
H          3.20525       -4.51629        2.11576
H          1.38918       -5.08296        0.48175
H          2.85094       -5.94860        0.06947
H         -1.17425       -3.54289        0.53010
C         -1.55866       -5.16802       -0.82117
H         -3.74839       -0.99954        1.13045
C         -5.87465        0.60159        0.02469
H         -1.22414       -2.81719       -1.91448
H         -3.55645       -3.09862        1.12234
H         -3.16173       -4.79226        1.37497
H         -4.08312       -4.31122       -0.04224
H         -2.31930       -5.50249       -1.52728
H         -0.62067       -5.07706       -1.37020
H         -1.43439       -5.95348       -0.07406
H         -6.43425       -1.67907       -1.36370
H         -4.84907       -2.43354       -1.31489
H         -5.75230       -2.18423        0.17526
H         -6.14778        0.26737        1.02609
H         -5.46233        1.60771        0.11530
H         -6.79216        0.66871       -0.56202
Fe        -1.07810        2.65364        0.17349
C         -2.53482        2.88342        1.59809
C         -1.74842        4.09533        1.45429
C         -0.35905        3.75572        1.70418
C         -0.29833        2.35159        2.05838
C         -1.64017        1.81160        1.98590
H         -3.62102        2.81270        1.50482
H         -2.13474        5.08865        1.21301
H          0.48120        4.45483        1.70303
H          0.58466        1.79839        2.37854
H         -1.91551        0.78397        2.23221
Pd        -0.19388       -0.83606        0.83614
