59
-75.79993230
Cl         1.43540        0.66029        2.34748
P          1.55758       -0.08485       -0.73818
P         -1.67446       -0.15133       -0.86096
C          0.63528        0.38630       -2.27181
H          0.43671        1.45888       -2.23342
H          1.29205        0.21259       -3.12955
C         -0.64751       -0.39309       -2.37907
H         -0.44009       -1.45973       -2.48484
H         -1.24082       -0.09610       -3.24913
C          2.30120       -1.75971       -1.02270
H          1.68092       -2.22580       -1.79919
C          3.14732        0.85567       -0.60551
H          3.50008        0.73401        0.42539
C         -2.85209       -1.53997       -0.49926
H         -2.80441       -1.69271        0.58617
C         -2.89361        1.23262       -1.08855
H         -2.87509        1.47971       -2.15693
C          3.71346       -1.45477       -1.57808
H          4.45710       -2.00220       -0.98451
H          3.81887       -1.86108       -2.59515
C          4.04978        0.06745       -1.57105
H          3.91493        0.48139       -2.58088
H          5.11041        0.23545       -1.32780
C         -4.21644       -0.94952       -0.89129
H         -4.42167       -1.19837       -1.94174
H         -5.02121       -1.42737       -0.31178
C         -4.23994        0.58973       -0.70852
H         -4.45821        0.82629        0.34206
H         -5.05873        1.04247       -1.28810
C          2.29578       -2.61764        0.24335
H          2.64913       -3.62717       -0.00952
H          1.26024       -2.74977        0.58331
C          3.00842        2.33956       -0.92840
H          4.00468        2.75972       -1.12503
H          2.45987        2.45108       -1.87200
C         -2.51813       -2.84129       -1.22005
H         -3.36793       -3.53149       -1.12444
H         -2.43261       -2.64031       -2.29569
C         -2.56973        2.47173       -0.25945
H         -3.43915        3.14382       -0.26894
H         -2.44911        2.17310        0.78975
C          3.12612       -2.06040        1.39002
H          3.07331       -2.69547        2.27737
H          2.77959       -1.07046        1.68331
H          4.17969       -1.96525        1.12450
C          2.33012        3.12216        0.18567
H          1.36193        2.69146        0.44018
H          2.16932        4.16870       -0.08270
H          2.92748        3.10412        1.09923
C         -1.25556       -3.50239       -0.69470
H         -1.01654       -4.42251       -1.23282
H         -1.35185       -3.75405        0.36327
H         -0.39927       -2.83587       -0.78660
C         -1.33870        3.21757       -0.74226
H         -1.13298        4.10542       -0.13991
H         -0.45644        2.58174       -0.69701
H         -1.45107        3.54036       -1.77903
Cl        -1.84050        0.24953        2.28709
Pd        -0.13408        0.12425        0.83726
