111
-148.55639116
P         -1.57737        2.75925       -0.21913
P         -0.50971       -0.14081        0.46438
C         -1.70053        2.12598        1.47837
C         -1.30278        0.83531        1.75738
C         -0.38543        4.16938       -0.31590
C          0.82126        3.79262       -1.14906
C         -2.16704        2.93516        2.49454
H         -2.44060        3.95503        2.27890
C         -2.25832        2.43933        3.78373
H         -2.62667        3.06970        4.57656
C         -1.87266        1.14083        4.05689
H         -1.93895        0.75693        5.06158
C         -1.38276        0.33911        3.04160
H         -1.04481       -0.66533        3.24306
Pd        -1.16816        0.88232       -1.50035
Cl        -1.72107        2.09447       -3.30176
Cl        -0.65480       -1.03897       -2.54933
C         -1.23204        5.31234       -0.91180
C         -3.12215        3.59607       -0.80400
H          0.51786        3.50024       -2.15638
H          1.52003        4.62738       -1.24095
H          1.35929        2.94838       -0.71352
H         -1.02659        5.37570       -1.98920
H         -0.91536        6.28055       -0.49551
H         -3.23004        3.31602       -1.86014
C         -2.75583        5.08696       -0.69358
C         -4.34919        3.17499       -0.02337
H         -0.09664        4.39743        0.71846
H         -3.04481        5.45178        0.30162
H         -3.34749        5.67984       -1.40788
H         -4.49675        2.09369       -0.07218
H         -4.25916        3.44518        1.02902
H         -5.25044        3.65764       -0.40813
C         -1.03570       -4.64804        0.85754
C          0.26941       -4.09812        0.75429
C          0.39154       -2.72508        0.62306
C         -0.70672       -1.90664        0.66675
C         -1.95755       -2.42270        0.88320
C         -2.15240       -3.78703        1.02965
O         -1.23013       -6.04590        0.71429
C          1.55881       -4.93669        0.78052
H          1.35838       -2.27768        0.47117
H         -2.79107       -1.74185        0.93119
C         -3.56609       -4.27776        1.38661
C          3.75515        1.39298        0.01539
C          3.24377        0.45131       -0.91678
C          1.94817       -0.00264       -0.74277
C          1.20521        0.37006        0.34557
C          1.73596        1.18564        1.31008
C          3.02361        1.68246        1.19794
O          4.94526        2.10691       -0.27883
C          4.03138       -0.08687       -2.12216
H          1.47857       -0.61825       -1.49094
H          1.11897        1.45891        2.14863
C          3.56615        2.53050        2.35990
C          1.32282       -6.35156        1.33697
C          2.13622       -5.03092       -0.64125
C          2.59858       -4.25811        1.70057
C         -4.47616       -4.15719        0.15315
C         -3.57237       -5.73147        1.89101
C         -4.13982       -3.40503        2.52520
C         -1.44739       -6.43625       -0.63139
H          0.67429       -6.92940        0.68274
H          2.26127       -6.89671        1.43527
H          0.85173       -6.30496        2.31817
H          3.07422       -5.58549       -0.64518
H          1.44651       -5.53466       -1.31519
H          2.33031       -4.03905       -1.04714
H          3.48758       -4.87947        1.80587
H          2.92277       -3.29617        1.30694
H          2.18363       -4.09439        2.69471
H         -5.49218       -4.47468        0.38620
H         -4.51881       -3.12737       -0.20001
H         -4.11230       -4.77335       -0.66665
H         -3.27541       -6.42302        1.10625
H         -2.87920       -5.85260        2.72270
H         -4.56548       -6.02545        2.22994
H         -5.10975       -3.78009        2.85086
H         -3.47181       -3.40869        3.38607
H         -4.28093       -2.37177        2.21273
H         -1.58247       -7.51717       -0.67493
H         -2.33631       -5.94596       -1.02437
H         -0.59337       -6.15503       -1.24481
C          4.70660        3.29877       -1.01020
C          5.53922        0.19590       -2.01075
C          3.86306       -1.62065       -2.19786
C          3.48103        0.54244       -3.41323
C          2.87828        3.90610        2.34995
C          3.25896        1.82347        3.69870
C          5.09206        2.71409        2.28964
H          6.08883       -0.27786       -2.82378
H          5.74446        1.26282       -2.05336
H          5.93245       -0.18262       -1.06790
H          4.17014       -2.08741       -1.26232
H          2.83043       -1.90386       -2.39434
H          4.47187       -2.03969       -2.99854
H          3.59781        1.62428       -3.40571
H          4.00236        0.15487       -4.28800
H          2.42001        0.32448       -3.53158
H          3.07139        4.43705        1.41988
H          1.79869        3.80179        2.45411
H          3.23564        4.52629        3.17152
H          3.66703        0.81313        3.70203
H          3.69922        2.36668        4.53451
H          2.18849        1.75531        3.88515
H          5.46621        3.23328        3.17170
H          5.38069        3.29729        1.41866
H          5.59240        1.74849        2.22531
H          4.13829        4.00287       -0.40516
H          5.66071        3.74988       -1.28340
H          4.14061        3.07749       -1.91347
