75
-122.80573569
P          1.91490       -0.51524       -0.17449
C          3.35136       -1.17004       -1.05012
C          3.55513       -0.93984       -2.39039
C          4.67173       -1.45218       -3.02186
C          5.58858       -2.19173       -2.30244
C          5.39032       -2.41533       -0.95470
C          4.26916       -1.90079       -0.32878
H          4.10337       -2.06803        0.72356
H          6.10649       -2.98981       -0.39049
H          6.46129       -2.59186       -2.79234
H          4.82840       -1.26930       -4.07229
H          2.84833       -0.33908       -2.93481
C          1.59366       -1.64787        1.17955
C          1.90375       -1.29128        2.47173
C          1.76093       -2.21502        3.49077
C          1.31376       -3.49002        3.20513
C          1.00596       -3.84294        1.90600
C          1.15053       -2.91754        0.88791
H          0.93373       -3.18209       -0.13536
H          0.65414       -4.83700        1.68430
H          1.19797       -4.20948        3.99916
H          1.99691       -1.93886        4.50523
H          2.25941       -0.29420        2.67541
C          2.27811        1.14121        0.42401
C          3.45560        1.78733        0.12859
C          3.63813        3.11727        0.48174
C          2.59770        3.78692        1.12495
C          1.40785        3.15446        1.41112
C          1.24910        1.79882        1.08293
O          0.05685        1.11545        1.37522
C         -1.13736        1.79811        1.08585
C         -1.27698        3.16658        1.36526
C         -2.44120        3.81205        1.01278
C         -3.48210        3.13353        0.37985
C         -3.32875        1.78194        0.10444
C         -2.18071        1.11871        0.47093
P         -1.82246       -0.61353        0.10775
C         -1.78379       -1.52925        1.66380
C         -1.38955       -0.92301        2.83456
C         -1.44736       -1.61595        4.02890
C         -1.89590       -2.92127        4.04442
C         -2.28327       -3.53257        2.86878
C         -2.22897       -2.83216        1.67724
H         -2.54316       -3.29452        0.75539
H         -2.63090       -4.55249        2.87872
H         -1.93744       -3.46544        4.97380
H         -1.13439       -1.13989        4.94357
H         -1.01888        0.08682        2.80681
C         -3.09761       -1.40467       -0.88630
C         -4.41703       -1.29741       -0.50948
C         -5.39626       -1.94433       -1.24128
C         -5.04495       -2.70659       -2.33751
C         -3.71781       -2.83181       -2.69678
C         -2.74108       -2.18458       -1.96220
H         -1.69998       -2.28073       -2.22681
H         -3.44204       -3.43186       -3.54832
H         -5.80716       -3.20954       -2.91000
H         -6.43072       -1.85755       -0.95204
H         -4.67430       -0.73111        0.37148
Pd        -0.06488        0.08364       -1.34569
Cl        -1.73392        0.48992       -2.80788
Cl         1.36756        1.14970       -2.71875
H         -4.10116        1.25794       -0.42876
C         -4.71072        3.85541       -0.04556
H         -4.61032        4.21751       -1.06949
H         -4.90662        4.71384        0.59821
H         -5.58385        3.20295       -0.00319
H         -2.53937        4.86290        1.22059
S          0.05720        4.02006        2.16674
H          2.71560        4.82226        1.39200
C          4.92112        3.80742        0.18221
H          4.23023        1.26121       -0.40223
H          5.31168        3.50131       -0.78922
H          4.79200        4.89024        0.16060
H          5.67257        3.57273        0.93713
