58
-89.86508044
P          1.72985       -0.02024        0.76346
C          1.95835        1.76101        0.70996
C          3.12952        2.31662        1.17289
C          3.28956        3.69102        1.16357
C          2.26992        4.50025        0.70191
C          1.09049        3.93915        0.25484
C          0.93717        2.56549        0.26292
H          0.01326        2.11840       -0.05817
H          3.91167        1.67362        1.54439
C          3.23301       -0.87376        0.26569
C          3.44283       -2.17689        0.65701
C          4.58396       -2.84364        0.24773
C          5.50400       -2.20353       -0.55861
C          5.28347       -0.90136       -0.96072
C          4.14189       -0.23761       -0.54905
H          3.94691        0.77145       -0.87494
H          2.70965       -2.67444        1.27109
C          1.31129       -0.45990        2.49357
C          0.07667        0.27248        2.99969
C         -1.23164       -0.37438        2.57430
P         -1.67407       -0.18382        0.79630
C         -3.01306       -1.34425        0.50472
C         -4.28929       -0.88404        0.27473
C         -5.31296       -1.78461        0.04178
C         -5.04891       -3.14018        0.04029
C         -3.76612       -3.59688        0.27092
C         -2.74427       -2.69369        0.50436
H         -1.73525       -3.03441        0.67651
H         -4.47813        0.17730        0.27259
C         -2.19048        1.49158        0.39832
C         -2.40687        1.80007       -0.92532
C         -2.76932        3.08381       -1.28739
C         -2.91442        4.05369       -0.31571
C         -2.70223        3.74076        1.01257
C         -2.33971        2.45486        1.37086
H         -2.16817        2.20533        2.40474
H         -2.28222        1.02856       -1.66817
Pd         0.04417       -0.62410       -0.71201
Cl         1.61602       -1.23328       -2.19629
Cl        -1.62395       -1.14551       -2.13878
H         -1.20548       -1.44655        2.77846
H         -2.07824        0.02423        3.13828
H          0.11047        0.32267        4.09942
H          0.10460        1.31720        2.66244
H          1.18068       -1.54088        2.56149
H          2.19643       -0.20565        3.08209
H          4.20776        4.12860        1.51954
H          0.28685        4.56737       -0.09239
H          4.75064       -3.86351        0.55337
H          5.99476       -0.40453       -1.59985
H         -6.31312       -1.42800       -0.14199
H         -3.55911       -4.65439        0.26452
H         -2.93498        3.32539       -2.32437
H         -2.81566        4.49860        1.77029
H          2.39270        5.57104        0.69616
H          6.39150       -2.72346       -0.88070
H         -5.84489       -3.84299       -0.14461
H         -3.19492        5.05643       -0.59418
