111
-148.54927607
P         -2.18011        2.17397        1.39014
P          0.14109        0.16860        0.60232
C         -1.16531        1.41697        2.68619
C         -0.14763        0.55616        2.33804
C         -2.28006        4.00317        1.65848
C         -1.61673        4.76409        0.53146
C         -1.38747        1.71867        4.01470
H         -2.16817        2.41248        4.28009
C         -0.60007        1.13898        4.99437
H         -0.77463        1.37221        6.03204
C          0.40970        0.26386        4.64336
H          1.02191       -0.18921        5.40569
C          0.63717       -0.02754        3.31028
H          1.42169       -0.70840        3.02133
Pd        -1.44309        1.33633       -0.63577
Cl        -2.81622        2.76577       -1.67326
Cl        -0.54327        0.32668       -2.42912
C         -3.79476        4.26843        1.80374
C         -3.97876        1.73928        1.43504
H         -2.13343        4.58442       -0.41185
H         -1.63062        5.84153        0.71224
H         -0.57653        4.45548        0.40176
H         -4.04686        5.21870        1.31152
H         -4.04974        4.41172        2.86395
H         -4.16203        1.06737        0.58540
C         -4.65314        3.10968        1.22092
C         -4.36117        1.06960        2.73797
H         -1.75556        4.19976        2.60364
H         -5.65598        3.10256        1.67289
H         -4.81127        3.28073        0.14569
H         -3.74215        0.19106        2.93289
H         -4.23016        1.75560        3.57621
H         -5.40739        0.75458        2.73481
C         -1.26780       -4.06030       -0.32307
C         -2.13619       -3.14008        0.31933
C         -1.64816       -1.87859        0.62108
C         -0.38930       -1.49994        0.23142
C          0.40193       -2.33995       -0.50708
C         -0.01904       -3.61814       -0.82937
O         -1.62792       -5.43033       -0.42402
C         -3.58431       -3.49142        0.69420
H         -2.24855       -1.16781        1.16302
H          1.35842       -1.97885       -0.83973
C          0.88573       -4.50690       -1.69647
C          4.35401        0.96486       -0.93645
C          4.13257       -0.10194       -0.02824
C          2.84252       -0.31927        0.42680
C          1.81533        0.51480        0.06763
C          2.04837        1.61457       -0.71617
C          3.31357        1.88969       -1.20693
O          5.60106        1.08256       -1.60594
C          5.25553       -1.04470        0.43232
H          2.61851       -1.16492        1.05348
H          1.21546        2.24889       -0.96537
C          3.52041        3.14811       -2.06372
C         -4.17220       -4.54015       -0.26768
C         -3.62213       -4.01674        2.13692
C         -4.48554       -2.24005        0.59487
C          1.84489       -5.29232       -0.78955
C          0.05197       -5.47723       -2.55271
C          1.71915       -3.64589       -2.67338
C         -1.22882       -6.21299        0.69400
H         -5.22143       -4.73226       -0.04481
H         -4.10157       -4.19617       -1.29903
H         -3.64252       -5.48665       -0.19524
H         -4.64031       -4.26468        2.43572
H         -3.01195       -4.91064        2.24575
H         -3.23963       -3.26761        2.82989
H         -4.23951       -1.50688        1.35994
H         -4.38317       -1.76518       -0.38062
H         -5.53385       -2.50468        0.73102
H          1.29854       -5.93516       -0.10316
H          2.51372       -5.91954       -1.37837
H          2.45493       -4.61371       -0.19379
H          0.68891       -6.06051       -3.21719
H         -0.50337       -6.17619       -1.93203
H         -0.66521       -4.92983       -3.16344
H          2.26318       -4.27548       -3.37704
H          1.07542       -2.97999       -3.24753
H          2.45745       -3.04030       -2.15040
H         -0.68736       -5.59858        1.41446
H         -2.10799       -6.64348        1.17303
H         -0.58820       -7.02838        0.35827
C          5.66454        0.37313       -2.83701
C          4.97236       -1.57405        1.85671
C          5.34016       -2.24219       -0.52646
C          6.60846       -0.31214        0.48830
C          3.24155        2.80821       -3.53580
C          2.55176        4.27112       -1.62635
C          4.94842        3.70052       -1.90551
H          5.82462       -2.13715        2.23647
H          4.78137       -0.75110        2.54500
H          4.11389       -2.24382        1.87541
H          5.54491       -1.91951       -1.54444
H          6.13083       -2.92879       -0.22502
H          4.40091       -2.79413       -0.53645
H          6.54352        0.56456        1.13185
H          7.39064       -0.96263        0.87886
H          6.92087        0.02114       -0.49810
H          3.36358        3.68613       -4.16957
H          3.91660        2.03615       -3.89699
H          2.22289        2.44097       -3.65912
H          2.62624        4.45186       -0.55433
H          2.78400        5.20378       -2.13992
H          1.51713        4.02688       -1.86261
H          5.16716        3.90353       -0.85770
H          5.07415        4.62756       -2.46431
H          5.69010        2.99419       -2.26980
H          5.88020        1.06763       -3.64879
H          6.46848       -0.36153       -2.79529
H          4.71860       -0.13337       -3.03330
