111
-148.55382708
P         -2.25546        2.44860        0.27230
P         -0.18115        0.07466        0.56596
C         -1.76518        1.88614        1.92022
C         -0.85916        0.85631        2.04375
C         -2.18193        4.29397        0.14676
C         -1.02799        4.73699       -0.72685
C         -2.28017        2.49293        3.04749
H         -2.99121        3.29622        2.94139
C         -1.87940        2.06597        4.30181
H         -2.28139        2.53738        5.18372
C         -0.96014        1.04152        4.42404
H         -0.64233        0.71394        5.40020
C         -0.44454        0.43789        3.29103
H          0.28636       -0.35188        3.36950
Pd        -0.95999        1.30204       -1.24655
Cl        -2.10445        2.30288       -2.89529
Cl         0.48857        0.20186       -2.56775
C         -3.57459        4.66242       -0.39891
C         -4.04725        2.16784       -0.08873
H         -0.98368        5.82550       -0.80887
H         -0.07201        4.38751       -0.33030
H         -1.13011        4.33410       -1.73600
H         -3.51092        4.75379       -1.49194
H         -3.87812        5.65643       -0.03689
H         -4.08956        1.77767       -1.11450
C         -4.63838        3.58834       -0.03343
C         -4.66107        1.18422        0.88470
H         -2.05899        4.66749        1.17170
H         -5.01624        3.77585        0.98104
H         -5.51581        3.66361       -0.69367
H         -4.14842        0.21974        0.84946
H         -4.58895        1.55472        1.90867
H         -5.71850        1.01528        0.66819
C         -1.28719       -4.33468        0.15989
C         -0.61828       -3.66295       -0.89424
C         -0.33635       -2.31774       -0.73564
C         -0.61342       -1.66152        0.43444
C         -1.17226       -2.33201        1.49134
C         -1.48857       -3.67740        1.40050
O         -1.78536       -5.65014       -0.03758
C         -0.22038       -4.35718       -2.20632
H          0.09115       -1.74705       -1.54072
H         -1.37193       -1.78382        2.39409
C         -2.06447       -4.39567        2.63145
C          4.24749        0.99150        0.09849
C          3.81322       -0.35734        0.02625
C          2.46271       -0.62054        0.17972
C          1.57647        0.38422        0.46356
C          2.00452        1.67429        0.63851
C          3.34254        2.00625        0.50386
O          5.57393        1.33187       -0.27778
C          4.76846       -1.52338       -0.27108
H          2.07955       -1.61745        0.05454
H          1.26794        2.42646        0.86563
C          3.77572        3.45915        0.75236
C          0.11306       -5.84135       -1.97032
C         -1.36698       -4.22372       -3.21968
C          1.04560       -3.70338       -2.80677
C         -3.59692       -4.29128        2.61092
C         -1.63305       -5.87327        2.66281
C         -1.54495       -3.74826        3.93565
C         -3.10893       -5.69752       -0.55578
H          0.89905       -5.94334       -1.22272
H         -0.75507       -6.39263       -1.61812
H          0.45499       -6.31710       -2.88914
H         -1.58698       -3.17443       -3.41520
H         -1.10814       -4.69650       -4.16670
H         -2.27725       -4.68907       -2.84936
H          1.40099       -4.26787       -3.66844
H          0.85362       -2.68745       -3.14833
H          1.84995       -3.67279       -2.07289
H         -4.03317       -4.77958        3.48197
H         -3.91196       -3.24800        2.61534
H         -4.01227       -4.75834        1.72128
H         -0.54713       -5.95652        2.63344
H         -1.98686       -6.36583        3.56816
H         -2.03246       -6.42155        1.81326
H         -1.84554       -4.33370        4.80429
H         -0.45683       -3.68926        3.93255
H         -1.94345       -2.74432        4.07461
H         -3.50119       -4.68879       -0.69096
H         -3.10933       -6.21907       -1.51271
H         -3.75074       -6.24841        0.13157
C          5.71735        1.65072       -1.65638
C          6.17414       -1.25048        0.29395
C          4.26300       -2.82519        0.39212
C          4.83987       -1.74210       -1.79013
C          5.22129        3.52758        1.27704
C          3.64656        4.25687       -0.55429
C          2.87727        4.11824        1.82418
H          6.83221       -2.10472        0.13681
H          6.63422       -0.38933       -0.18396
H          6.12544       -1.05186        1.36406
H          4.99875       -3.62248        0.28917
H          4.08143       -2.67270        1.45567
H          3.34130       -3.18138       -0.06499
H          5.22262       -0.85991       -2.29757
H          5.49128       -2.58075       -2.03444
H          3.85063       -1.95235       -2.19576
H          5.32967        2.92976        2.18138
H          5.92888        3.15143        0.54258
H          5.50471        4.55320        1.51212
H          2.62039        4.23341       -0.92032
H          3.92853        5.29886       -0.40550
H          4.28363        3.84411       -1.33281
H          2.84303        3.51032        2.72790
H          1.85817        4.25889        1.46753
H          3.25848        5.10212        2.09666
H          6.09756        2.66685       -1.75980
H          6.43394        0.97080       -2.11681
H          4.75699        1.56753       -2.16702
