59
-75.79796062
Cl         1.41281        0.48260        2.40254
P          1.44765        0.01739       -0.84500
P         -1.72390       -0.20862       -0.79811
C          0.43455        0.33262       -2.35988
H          0.12365        1.37987       -2.36593
H          1.05960        0.17094       -3.24390
C         -0.76301       -0.57228       -2.32965
H         -0.45574       -1.62111       -2.30639
H         -1.41565       -0.43548       -3.19764
C          2.61785       -1.37738       -1.20559
H          2.39293       -1.66998       -2.24064
C          2.66586        1.36134       -0.45923
H          2.34373        1.82891        0.47957
C         -3.07364       -1.43291       -0.47016
H         -3.14942       -1.51310        0.62136
C         -2.75118        1.32004       -1.04415
H         -2.58159        1.63770       -2.08000
C          4.00675       -0.71215       -1.12969
H          4.74077       -1.42974       -0.73608
H          4.35856       -0.46472       -2.14219
C          3.98208        0.58126       -0.26978
H          4.83992        1.22204       -0.51685
H          4.10823        0.31966        0.79096
C         -4.31293       -0.72015       -1.03460
H         -4.40835       -0.96614       -2.10149
H         -5.22756       -1.10556       -0.55802
C         -4.19842        0.81814       -0.86033
H         -4.53883        1.09176        0.14778
H         -4.87682        1.34230       -1.55019
C          2.44196       -2.58732       -0.28906
H          3.05997       -3.41348       -0.66809
H          1.40760       -2.94417       -0.36929
C          2.71697        2.41023       -1.56584
H          3.05802        1.92912       -2.49200
H          1.69833        2.75923       -1.77951
C         -2.80013       -2.80522       -1.07190
H         -3.71497       -3.41181       -1.01948
H         -2.59277       -2.68925       -2.14350
C         -2.38116        2.44508       -0.08018
H         -3.17099        3.20878       -0.10795
H         -2.39965        2.05002        0.94390
C          2.78469       -2.33274        1.16962
H          3.83329       -2.05948        1.29572
H          2.60299       -3.21217        1.79181
H          2.19042       -1.51831        1.58043
C          3.59939        3.60438       -1.22884
H          3.58724        4.35727       -2.02037
H          4.63909        3.31009       -1.07910
H          3.26748        4.09050       -0.30945
C         -1.65604       -3.52703       -0.37849
H         -1.88664       -3.71501        0.67193
H         -0.74643       -2.92719       -0.39886
H         -1.43069       -4.48879       -0.84478
C         -1.03613        3.09106       -0.37326
H         -1.00655        3.50197       -1.38412
H         -0.81447        3.90635        0.31917
H         -0.22169        2.37171       -0.29253
Cl        -1.82112       -0.06476        2.33772
Pd        -0.12278       -0.08039        0.86758
