59
-75.80953729
Cl         1.67582        0.51106        2.28319
P          1.57728       -0.09325       -0.88824
P         -1.59688       -0.04949       -0.81034
C          0.57863        0.21742       -2.40948
H          0.34264        1.28254       -2.47210
H          1.17886       -0.03891       -3.28838
C         -0.67471       -0.60080       -2.30889
H         -0.43765       -1.66259       -2.19854
H         -1.32065       -0.49154       -3.18583
C          2.60798       -1.61042       -1.20153
H          2.47243       -1.80320       -2.27449
C          2.94180        1.14298       -0.65544
H          3.01918        1.30536        0.42635
C         -3.02762       -1.16378       -0.43227
H         -3.23715       -1.00260        0.63286
C         -2.60025        1.45074       -1.24249
H         -2.01952        2.05982       -1.94596
C          4.05043       -1.13501       -0.95474
H          4.34759       -1.38425        0.07099
H          4.75048       -1.68402       -1.60252
C          4.18611        0.39616       -1.16480
H          4.31480        0.61105       -2.23460
H          5.09260        0.78293       -0.67463
C         -4.17139       -0.59113       -1.29843
H         -4.41407       -1.31071       -2.09302
H         -5.08811       -0.51342       -0.69532
C         -3.82142        0.79615       -1.92323
H         -4.68675        1.47352       -1.86928
H         -3.61569        0.67377       -2.99783
C          2.18105       -2.84458       -0.40713
H          2.76704       -3.70812       -0.75141
H          1.14272       -3.08471       -0.66940
C          2.68067        2.47033       -1.35651
H          3.59617        3.07755       -1.32718
H          2.49650        2.28043       -2.42177
C         -2.72525       -2.63660       -0.67682
H         -3.65908       -3.21203       -0.60887
H         -2.38459       -2.76386       -1.71223
C         -2.98493        2.27258       -0.01263
H         -3.82087        2.93556       -0.27626
H         -3.38757        1.59279        0.74971
C          2.31421       -2.71776        1.10378
H          3.35597       -2.63371        1.41586
H          1.89575       -3.58319        1.62306
H          1.79816       -1.83570        1.47963
C          1.52533        3.24408       -0.74312
H          1.71693        3.47272        0.30704
H          0.60238        2.66547       -0.77899
H          1.34186        4.18929       -1.25900
C         -1.70126       -3.19506        0.29824
H         -0.77110       -2.62886        0.25753
H         -1.46214       -4.24088        0.09268
H         -2.06191       -3.13476        1.32687
C         -1.84815        3.09958        0.56619
H         -1.02496        2.47031        0.90251
H         -1.44836        3.79429       -0.17467
H         -2.17087        3.68989        1.42681
Cl        -1.53648        0.05894        2.45373
Pd         0.02183        0.03260        0.84286
