171
-217.83987265
P         -1.70025        0.66675        0.16221
P          1.51850       -0.21760       -0.19564
C         -0.85015        1.86204       -0.89175
C          0.75007       -0.78466       -1.72229
C         -0.11685        1.52390       -2.02329
C          0.58785        2.53729       -2.70021
C          0.51431        3.84077       -2.23893
C         -0.21928        4.15784       -1.11622
C         -0.89320        3.15989       -0.43926
C          0.92978       -2.07846       -2.14480
C          0.33749       -2.51613       -3.31281
C         -0.44017       -1.64878       -4.05169
C         -0.63981       -0.34038       -3.64134
C         -0.01090        0.10943       -2.46448
Cl         1.92000        0.87462        2.84902
Cl        -1.13802        0.18194        3.46391
C         -1.49081        0.57296       -4.45255
C          1.43208        2.24027       -3.89015
H         -0.25914        5.17485       -0.76175
H         -1.45100        3.38832        0.45703
H          1.54274       -2.74613       -1.56425
H          0.48005       -3.53204       -3.64327
H          1.05332        4.61047       -2.76527
H         -0.89468       -1.98442       -4.96812
C         -2.84341       -3.42155       -1.42832
C         -1.89764       -3.35392       -0.41203
C         -1.52753       -2.09581        0.04505
C         -2.09022       -0.96191       -0.49369
C         -3.03882       -1.05048       -1.48260
C         -3.43794       -2.28907       -1.96997
H         -3.14468       -4.38167       -1.80256
H         -0.80457       -2.00370        0.83592
H         -3.47558       -0.14275       -1.86071
C         -5.62509        2.57181        1.38873
C         -4.87610        1.92283        2.36284
C         -3.67099        1.34997        1.98001
C         -3.24290        1.42570        0.67971
C         -3.99525        2.07085       -0.27075
C         -5.20614        2.66152        0.06628
H         -6.55684        3.02100        1.67685
H         -3.04088        0.85437        2.69524
H         -3.62670        2.12559       -1.28190
C          3.76091       -3.73859        1.63718
C          2.73218       -3.16850        2.37509
C          2.04195       -2.10248        1.81502
C          2.38591       -1.60671        0.57923
C          3.42381       -2.17224       -0.12057
C          4.12418       -3.25855        0.38565
H          4.29094       -4.57278        2.05681
H          1.23515       -1.64992        2.35934
H          3.68823       -1.77156       -1.08315
C          4.53364        2.99378       -1.24995
C          3.66730        3.21727       -0.18747
C          2.76425        2.21341        0.13500
C          2.72056        1.05209       -0.59379
C          3.56447        0.86029       -1.66051
C          4.50045        1.82841       -2.00547
H          5.26372        3.74537       -1.48712
H          2.09176        2.32664        0.96568
H          3.47098       -0.04197       -2.23893
Pd         0.10674        0.40694        1.60231
C         -1.62180       -4.56959        1.75949
C         -1.31189       -4.61039        0.25148
C          0.21005       -4.65048        0.03561
C         -1.91708       -5.90125       -0.33325
H         -1.16195       -3.70420        2.23382
H         -2.69664       -4.51049        1.92929
H         -1.25057       -5.46348        2.25995
H          0.65192       -5.52291        0.51629
H          0.44626       -4.69917       -1.02666
H          0.68731       -3.76480        0.44934
H         -1.70230       -5.98811       -1.39822
H         -1.50024       -6.78008        0.15866
H         -2.99764       -5.92647       -0.19339
C         -5.66771       -3.31701       -2.48562
C         -4.53119       -2.43595       -3.03851
C         -3.93392       -3.09085       -4.29589
C         -5.12954       -1.07076       -3.42967
H         -6.07999       -2.88475       -1.57402
H         -6.47632       -3.41029       -3.21040
H         -5.31552       -4.32066       -2.25097
H         -3.14139       -2.47105       -4.71190
H         -3.51093       -4.06901       -4.06978
H         -4.69443       -3.22413       -5.06509
H         -5.57521       -0.58012       -2.56480
H         -4.36980       -0.41163       -3.84762
H         -5.91031       -1.19049       -4.18063
C         -4.40925        1.09965        4.72599
C         -5.38542        1.86473        3.81030
C         -6.74694        1.14639        3.84219
C         -5.53976        3.29743        4.35265
H         -4.27620        0.07259        4.38690
H         -3.43293        1.58311        4.75069
H         -4.78481        1.06352        5.74841
H         -7.49036        1.67898        3.25028
H         -6.65868        0.13750        3.43954
H         -7.12455        1.07126        4.86179
H         -5.88121        3.28814        5.38760
H         -4.58778        3.82672        4.31586
H         -6.26192        3.86679        3.76869
C         -7.33418        3.95647       -0.46153
C         -6.01160        3.39366       -1.01628
C         -6.33953        2.41336       -2.15795
C         -5.17204        4.56292       -1.56386
H         -7.89612        4.46567       -1.24445
H         -7.96482        3.15942       -0.06803
H         -7.15076        4.67833        0.33410
H         -6.90535        1.56104       -1.78231
H         -6.93455        2.89937       -2.93094
H         -5.43239        2.03443       -2.62714
H         -4.91244        5.25736       -0.76505
H         -4.24442        4.20811       -2.01189
H         -5.72139        5.11463       -2.32648
C          1.27528       -2.89413        4.44666
C          2.40113       -3.70643        3.77490
C          3.65591       -3.61342        4.66308
C          1.95068       -5.17359        3.66395
H          1.06412       -3.27730        5.44472
H          1.55507       -1.84567        4.54829
H          0.35138       -2.94883        3.87271
H          4.47042       -4.21734        4.26519
H          4.00379       -2.58264        4.72807
H          3.44537       -3.96317        5.67358
H          1.07027       -5.25843        3.02862
H          2.73413       -5.79671        3.23416
H          1.69972       -5.58000        4.64353
C          4.67832       -4.35719       -1.79690
C          5.25315       -3.87559       -0.45116
C          5.90072       -5.07764        0.26221
C          6.33761       -2.81104       -0.70182
H          3.88541       -5.08776       -1.63714
H          4.25950       -3.52970       -2.36858
H          5.45129       -4.82473       -2.40652
H          6.33981       -4.77907        1.21395
H          5.16879       -5.86321        0.44936
H          6.69609       -5.50632       -0.34741
H          7.16172       -3.22234       -1.28441
H          5.93646       -1.95839       -1.24814
H          6.74058       -2.44282        0.24139
C          2.65195        4.59410        1.69543
C          3.73556        4.53256        0.60021
C          3.51956        5.71493       -0.36227
C          5.11623        4.65022        1.26994
H          2.69901        5.54036        2.23395
H          1.65442        4.50806        1.26507
H          2.78357        3.79430        2.42386
H          3.54484        6.66364        0.17352
H          4.28968        5.74659       -1.13196
H          2.55321        5.63417       -0.85899
H          5.29039        3.80880        1.94035
H          5.91532        4.65899        0.52955
H          5.19043        5.56804        1.85292
C          5.17669        0.36132       -3.97169
C          5.52195        1.60678       -3.13084
C          6.91214        1.40768       -2.50152
C          5.55197        2.82772       -4.07064
H          5.88392        0.24055       -4.79214
H          5.21801       -0.54612       -3.36991
H          4.17929        0.44459       -4.40292
H          7.21002        2.28346       -1.92567
H          6.91101        0.55050       -1.82844
H          7.66782        1.23551       -3.26773
H          4.57085        3.00590       -4.50862
H          5.85457        3.73177       -3.54432
H          6.25785        2.67117       -4.88622
H         -0.89809        1.09081       -5.20748
H          2.41157        2.70845       -3.78972
H         -1.97066        1.32512       -3.82421
H         -2.27836        0.02243       -4.96883
H          0.97044        2.62176       -4.80196
H          1.59203        1.16855       -4.01330
