171
-217.83745144
P         -1.68326        0.66206        0.26859
P          1.48676       -0.21236       -0.27664
C         -0.94488        1.76375       -0.95793
C          0.61212       -0.93708       -1.67760
C         -0.30769        1.33008       -2.11447
C          0.31342        2.28393       -2.94278
C          0.25733        3.62352       -2.59695
C         -0.37918        4.03517       -1.44597
C         -0.97306        3.09726       -0.62367
C          0.76655       -2.26511       -1.99324
C          0.08847       -2.80621       -3.06790
C         -0.75950       -2.01369       -3.81301
C         -0.94167       -0.67565       -3.50459
C         -0.21806       -0.11791       -2.43298
Cl         2.10276        1.29689        2.63753
Cl        -0.89813        0.64709        3.49260
C         -1.87825        0.15265       -4.31297
C          1.04821        1.88702       -4.17536
H         -0.40604        5.08007       -1.18332
H         -1.45579        3.40126        0.29354
H          1.41284       -2.88448       -1.39542
H          0.21722       -3.84559       -3.32174
H          0.73223        4.34701       -3.23807
H         -1.28829       -2.43364       -4.65163
C         -2.81551       -3.57708       -0.86941
C         -1.74583       -3.40295       -0.00017
C         -1.39169       -2.10335        0.34262
C         -2.07037       -1.03344       -0.19439
C         -3.12505       -1.22810       -1.05202
C         -3.52618       -2.51048       -1.40264
H         -3.11622       -4.57604       -1.12623
H         -0.58020       -1.91967        1.02310
H         -3.64404       -0.36763       -1.43558
C         -5.64175        2.50622        1.47520
C         -5.28613        2.46912        0.13285
C         -4.05319        1.91891       -0.19531
C         -3.22590        1.42602        0.78442
C         -3.59394        1.47418        2.10447
C         -4.81375        2.02030        2.47936
H         -6.59292        2.92603        1.74675
H         -3.72368        1.87420       -1.21960
H         -2.90874        1.09286        2.83853
C          4.01331       -3.42795        1.73989
C          3.10287       -2.73135        2.52205
C          2.32477       -1.76339        1.90275
C          2.46174       -1.49102        0.56141
C          3.38803       -2.17786       -0.18591
C          4.17421       -3.17088        0.38521
H          4.62288       -4.18315        2.20097
H          1.61600       -1.20663        2.48467
H          3.49452       -1.93511       -1.22790
C          4.35564        2.88550       -1.91807
C          3.59516        3.21206       -0.80255
C          2.73678        2.24539       -0.29713
C          2.63345        1.01801       -0.90073
C          3.37439        0.72106       -2.01864
C          4.25945        1.65201       -2.54998
H          5.05277        3.61004       -2.29612
H          2.14985        2.43942        0.58168
H          3.24023       -0.23751       -2.48830
Pd         0.24994        0.60988        1.56679
C         -2.02431       -5.38868        1.49645
C         -1.03948       -4.63486        0.58519
C          0.19514       -4.24315        1.41499
C         -0.57223       -5.56232       -0.55285
H         -2.89763       -5.72540        0.93879
H         -1.55248       -6.26431        1.94198
H         -2.37105       -4.74391        2.30383
H          0.91135       -3.69200        0.80808
H         -0.08277       -3.62778        2.26993
H          0.70088       -5.13045        1.79457
H         -0.06094       -6.43849       -0.15434
H         -1.40959       -5.91310       -1.15425
H          0.12156       -5.04314       -1.21230
C         -5.76542       -3.62740       -1.56235
C         -4.73290       -2.76832       -2.31610
C         -4.26684       -3.50900       -3.58163
C         -5.41635       -1.45259       -2.73902
H         -6.08385       -3.12972       -0.64650
H         -6.64898       -3.80295       -2.17582
H         -5.35203       -4.59766       -1.28987
H         -5.10697       -3.71596       -4.24429
H         -3.54406       -2.90959       -4.13306
H         -3.79441       -4.45867       -3.33312
H         -4.73177       -0.81473       -3.29686
H         -6.27611       -1.65089       -3.37881
H         -5.77226       -0.89991       -1.86971
C         -5.65289        2.88681       -2.35079
C         -6.24859        3.00929       -0.93399
C         -6.53754        4.49548       -0.65405
C         -7.56071        2.20513       -0.88601
H         -6.34462        3.27856       -3.09640
H         -4.72322        3.44936       -2.43550
H         -5.45155        1.84610       -2.60392
H         -7.20246        4.91273       -1.41010
H         -7.01146        4.63135        0.31734
H         -5.61406        5.07425       -0.65987
H         -8.25990        2.55328       -1.64610
H         -7.36995        1.14666       -1.06214
H         -8.04775        2.29997        0.08381
C         -5.49800        3.56858        4.32962
C         -5.26062        2.09638        3.94623
C         -4.19613        1.51123        4.89546
C         -6.56394        1.29581        4.12244
H         -5.79755        3.65641        5.37382
H         -4.58934        4.15357        4.18859
H         -6.28187        4.01577        3.71950
H         -4.00608        0.46154        4.67287
H         -3.25577        2.05599        4.81452
H         -4.52536        1.57401        5.93246
H         -6.89633        1.31496        5.16021
H         -7.36578        1.70382        3.50820
H         -6.41777        0.25511        3.83368
C          2.74146       -4.48577        4.29194
C          3.02273       -2.99415        4.03351
C          1.90318       -2.16669        4.69768
C          4.36504       -2.60180        4.67682
H          1.79307       -4.78339        3.84707
H          3.52286       -5.11788        3.87226
H          2.68762       -4.69105        5.36096
H          2.08297       -1.09781        4.58431
H          0.93087       -2.40026        4.26487
H          1.84799       -2.37764        5.76539
H          4.58578       -1.55060        4.49220
H          4.34263       -2.75847        5.75509
H          5.18490       -3.19225        4.26918
C          6.58635       -3.83777        0.18697
C          5.18528       -3.98353       -0.43532
C          5.25199       -3.49879       -1.89728
C          4.76172       -5.46351       -0.42857
H          6.61186       -4.22390        1.20514
H          7.32951       -4.38383       -0.39387
H          6.88553       -2.79022        0.21830
H          5.55235       -2.45240       -1.94824
H          5.97985       -4.07880       -2.46446
H          4.28732       -3.60761       -2.39276
H          5.45089       -6.06992       -1.01602
H          4.74355       -5.86413        0.58442
H          3.76380       -5.57958       -0.85149
C          5.16649        4.78065        0.35847
C          3.72802        4.59822       -0.15749
C          2.75634        4.76735        1.02772
C          3.40771        5.68050       -1.20493
H          5.28881        5.75123        0.83885
H          5.41334        4.00906        1.08750
H          5.88916        4.71653       -0.45420
H          2.96545        4.04234        1.81399
H          2.84774        5.76158        1.46452
H          1.72227        4.64067        0.70784
H          3.47652        6.67720       -0.76950
H          4.09836        5.63623       -2.04609
H          2.39811        5.55166       -1.59380
C          4.69827        0.03943       -4.46853
C          5.16581        1.31801       -3.74425
C          6.59808        1.09895       -3.22694
C          5.15711        2.47464       -4.76323
H          4.77284       -0.83302       -3.82041
H          3.66514        0.13422       -4.80182
H          5.31421       -0.15485       -5.34648
H          6.97571        1.99396       -2.73315
H          6.62615        0.28255       -2.50532
H          7.27622        0.85258       -4.04377
H          4.14508        2.68065       -5.10928
H          5.55983        3.39109       -4.33462
H          5.76398        2.22760       -5.63423
H         -2.72571       -0.43943       -4.66114
H          0.49372        2.17373       -5.07001
H         -1.37734        0.56486       -5.18974
H         -2.27539        0.98355       -3.72765
H          1.21887        0.81059       -4.21269
H          2.02230        2.37540       -4.21420
