45
-71.81566140
C          0.38827        0.41731        2.52304
P          0.97723        0.54510        0.80054
P         -1.61329        0.39063       -1.01661
C         -2.41190        0.20690       -2.64583
Cl         1.63492       -2.47286        0.37452
H         -0.69648        0.46763        2.54665
H         -2.81430       -0.79702       -2.74660
Cl        -1.15390       -2.65546       -1.63457
C          0.34754        2.03523        0.00073
C         -0.76482        1.97081       -0.81037
C         -1.25189        3.11376       -1.41045
C         -0.61095        4.32322       -1.20655
C          0.50848        4.38594       -0.39932
C          0.98869        3.23900        0.20804
H         -2.13307        3.05573       -2.02847
H         -0.98775        5.21703       -1.67595
H          1.00744        5.32775       -0.24062
H          1.86075        3.27186        0.84145
Pd         0.01492       -1.15632       -0.44447
H         -1.68454        0.37588       -3.43470
H          0.79171        1.23358        3.11536
H         -3.22230        0.92292       -2.74799
C         -4.44415       -0.32910        2.46394
C         -4.12310       -1.36458        1.60801
C         -3.27075       -1.13627        0.54360
C         -2.75406        0.12204        0.33949
C         -3.06198        1.15517        1.19420
C         -3.91336        0.93006        2.26082
H         -5.10720       -0.50513        3.29521
H         -4.52900       -2.34924        1.77197
H         -2.97771       -1.93613       -0.11769
H         -2.63256        2.12967        1.02646
H         -4.15988        1.73576        2.93264
C          5.49493        0.30265        0.32321
C          4.93699        0.13446        1.57517
C          3.56517        0.21101        1.73573
C          2.76301        0.45739        0.64485
C          3.31377        0.62219       -0.60570
C          4.68571        0.54605       -0.76880
H          6.56359        0.24066        0.19769
H          5.56865       -0.06012        2.42635
H          3.11871        0.07378        2.70705
H          2.66679        0.80808       -1.44898
H          5.12004        0.67353       -1.74672
H          0.70445       -0.52824        2.95428
