64
-97.21426992
Cl        -1.58456       -1.38086       -2.53794
Cl         1.68354       -1.35115       -2.84253
P          1.95920       -0.60882        0.24936
C          2.17162       -2.28674        1.00421
C          3.74425       -0.17339       -0.03328
P         -1.29146       -0.14270        0.41989
C          1.25638        0.60031        1.42840
C         -0.17334        0.82774        1.49965
C         -0.39249        1.95032        2.40064
C          0.89453        2.38968        2.91072
C          1.91755        1.56381        2.29502
H         -1.36437        2.33709        2.71382
H          1.06281        3.19658        3.62748
Pd         0.18230       -0.92145       -1.24217
H          2.99452        1.64148        2.45812
C         -5.04714        2.07328       -0.93563
C         -4.09022        2.74737       -0.20408
C         -2.94866        2.08706        0.21043
C         -2.75959        0.76145       -0.11023
C         -3.71665        0.08825       -0.83514
C         -4.86246        0.74228       -1.25119
H         -5.93787        2.58591       -1.26059
H         -4.23160        3.78669        0.04362
H         -2.19821        2.60846        0.77696
H         -3.55982       -0.94905       -1.08252
H         -5.60671        0.21327       -1.82354
C         -2.60701       -3.95866        2.50333
C         -2.39686       -2.80843        3.23921
C         -2.00469       -1.64457        2.60199
C         -1.82431       -1.64335        1.23817
C         -2.03891       -2.78403        0.50025
C         -2.43058       -3.94863        1.13337
H         -2.91213       -4.86572        2.99918
H         -2.53637       -2.81670        4.30775
H         -1.83044       -0.73834        3.16033
H         -1.90785       -2.75100       -0.56931
H         -2.59898       -4.84434        0.55836
C          4.13794       -0.23223       -1.49302
H          3.88960        0.84070        0.36133
C          4.48589       -1.21535        0.82693
H          4.64584       -0.81939        1.84056
C          3.68818       -2.54372        0.91259
H          5.48977       -1.39076        0.41327
C          1.64271       -2.29407        2.42209
H          1.60987       -2.99360        0.37822
H          4.01432       -3.13716        1.77884
H          3.91158       -3.16052        0.03001
H          2.17690       -1.56472        3.03431
H          0.58344       -2.03263        2.45238
H          1.76169       -3.27382        2.89074
H          3.56323        0.47004       -2.09852
H          5.19690       -0.00359       -1.63135
H          3.96126       -1.23097       -1.89516
Fe         0.80912        2.47929        0.85710
C          1.31379        2.26225       -1.10259
C          2.17014        3.23539       -0.45057
C          1.32922        4.31142        0.04555
C         -0.04673        3.99080       -0.29137
C         -0.05421        2.72994       -1.01039
H          1.63714        1.36612       -1.63509
H          3.25974        3.18978       -0.38369
H          1.67181        5.20661        0.56917
H         -0.91861        4.61383       -0.08105
H         -0.92567        2.23733       -1.44575
