87
-129.18437183
P         -1.51680       -0.24406       -0.38021
P          1.73555        0.30827        0.24187
C         -1.05836        0.98013       -1.61585
C          1.52511       -0.81329       -1.16132
C          0.04155        0.74911       -2.43304
C          0.40593        1.72960       -3.37634
C         -0.36427        2.87630       -3.48488
C         -1.46356        3.07764       -2.67549
C         -1.80609        2.12572       -1.73511
C          2.11699       -2.04224       -0.98921
C          2.00583       -3.01362       -1.96506
C          1.29323       -2.74561       -3.11322
C          0.67314       -1.52205       -3.30047
C          0.78517       -0.53093       -2.30595
Cl         1.06339       -0.37121        3.36532
Cl        -1.59840       -1.91432        2.42454
H         -2.04637        3.97936       -2.76777
H         -2.65511        2.27607       -1.08853
H          2.66448       -2.24133       -0.07985
H          2.47182       -3.97543       -1.82693
H         -0.08644        3.62321       -4.20904
H          1.20156       -3.49912       -3.87706
C         -2.51127       -4.15130       -2.48731
C         -1.88768       -4.19338       -1.24810
C         -1.62153       -2.99438       -0.59981
C         -1.93823       -1.79281       -1.18865
C         -2.55345       -1.76045       -2.41863
C         -2.84654       -2.94470       -3.06910
H         -2.73652       -5.07495       -2.99265
C         -1.54893       -5.49009       -0.60172
H         -1.18363       -3.00549        0.38271
H         -2.78647       -0.80939       -2.87118
H         -3.32919       -2.92472       -4.03247
C         -5.26364        1.33315        1.69914
C         -5.35974        0.62935        0.51564
C         -4.21684        0.14715       -0.09432
C         -2.98618        0.36605        0.48094
C         -2.89223        1.06805        1.66134
C         -4.02827        1.56715        2.28528
H         -6.15212        1.70309        2.18196
H         -6.32433        0.45323        0.06842
H         -4.28087       -0.40416       -1.01805
H         -1.93449        1.21958        2.12481
C         -3.92103        2.29352        3.57985
C          6.12630        0.07640        1.43607
C          5.76621        0.18692        0.10756
C          4.42972        0.24630       -0.24238
C          3.46451        0.19590        0.73725
C          3.82429        0.08390        2.05874
C          5.16018        0.01454        2.43026
H          7.16625        0.03592        1.71221
H          6.52517        0.22830       -0.65645
H          4.13381        0.32456       -1.27683
H          3.05738        0.03515        2.81037
C          5.54322       -0.08569        3.86510
C          0.73700        4.70462       -0.39576
C          1.75872        4.12140       -1.11937
C          2.07130        2.78893       -0.92339
C          1.35905        2.05037       -0.00802
C          0.36295        2.63952        0.73678
C          0.02821        3.97348        0.54764
H          0.48212        5.73772       -0.55955
H          2.30511        4.70069       -1.84548
H          2.85813        2.31817       -1.48976
H         -0.15451        2.06548        1.48304
C         -1.08970        4.57904        1.32132
Pd        -0.07645       -0.58520        1.44984
C          1.60421        1.56569       -4.24453
C         -0.09810       -1.28851       -4.55350
H          1.31301        1.36901       -5.27708
H          2.21671        2.46847       -4.23475
H          2.23175        0.73994       -3.90713
H          0.57222       -1.08377       -5.38914
H         -0.69563       -2.16394       -4.81132
H         -0.78022       -0.44383       -4.45359
H         -1.38425       -6.27116       -1.34529
H         -0.63955       -5.40359       -0.00508
H         -2.35435       -5.81551        0.05804
H         -2.95858        2.79950        3.66866
H         -4.70269        3.04863        3.67425
H         -4.01511        1.60256        4.41870
H          5.68486        0.90549        4.29804
H          4.77190       -0.59756        4.44245
H          6.47286       -0.64344        3.98671
H         -1.10963        5.66392        1.20991
H         -2.05032        4.18860        0.98172
H         -0.99287        4.35496        2.38462
