111
-148.55510180
P         -2.59045        2.02661        0.83183
P          0.15268        0.43025        0.46789
C         -1.47937        1.78683        2.24588
C         -0.27669        1.13460        2.07360
C         -3.44707        3.66604        0.88326
C         -2.86116        4.62707       -0.12795
C         -1.84027        2.24391        3.49711
H         -2.79067        2.73381        3.63195
C         -0.98889        2.05542        4.57224
H         -1.27033        2.41274        5.54935
C          0.21825        1.40709        4.39552
H          0.87976        1.25764        5.23293
C          0.57282        0.94035        3.14259
H          1.50349        0.41597        2.99076
Pd        -1.31992        1.45103       -0.99999
Cl        -3.02604        2.13007       -2.28607
Cl         0.07656        0.80913       -2.64203
C         -4.91964        3.28881        0.63498
C         -4.04920        0.88877        0.83311
H         -1.79771        4.79741        0.05618
H         -2.95838        4.23183       -1.14007
H         -3.36987        5.59357       -0.10176
H         -5.12696        3.37010       -0.44100
H         -5.58950        4.01458        1.12080
H         -4.11866        0.48319       -0.18523
C         -5.22790        1.84024        1.11147
C         -3.88186       -0.22446        1.84448
H         -3.31953        4.05431        1.90163
H         -5.43081        1.84532        2.19127
H         -6.14678        1.45906        0.64050
H         -4.75597       -0.87934        1.86690
H         -3.00728       -0.83685        1.61573
H         -3.74433        0.18146        2.84840
C         -1.19997       -3.91576        0.24829
C         -1.04298       -3.29510        1.51444
C         -0.60841       -1.98069        1.55263
C         -0.40481       -1.27148        0.39835
C         -0.65860       -1.83515       -0.82355
C         -1.09587       -3.14224       -0.93560
O         -1.42329       -5.31606        0.16803
C         -1.31049       -4.03674        2.83342
H         -0.41872       -1.49046        2.49099
H         -0.49999       -1.23028       -1.69887
C         -1.42628       -3.69517       -2.33035
C          4.54306        0.79565       -0.68408
C          3.82625       -0.39170       -0.97883
C          2.49273       -0.45708       -0.61411
C          1.89147        0.56555        0.07117
C          2.60453        1.67490        0.44337
C          3.94621        1.80099        0.12011
O          5.84096        0.99497       -1.22522
C          4.45008       -1.58254       -1.72299
H          1.89464       -1.31073       -0.87991
H          2.09224        2.44938        0.98769
C          4.72362        3.02945        0.61878
C         -1.73817       -3.04880        3.94281
C         -2.45582       -5.05255        2.67103
C         -0.02819       -4.75222        3.28403
C         -0.14876       -4.26455       -2.96585
C         -2.51491       -4.78087       -2.25616
C         -1.97388       -2.57206       -3.24182
C         -0.23221       -6.08524        0.05785
H         -2.04138       -3.58523        4.84163
H         -0.92405       -2.38395        4.22759
H         -2.58143       -2.44044        3.61763
H         -2.68974       -5.53462        3.61990
H         -3.35755       -4.55932        2.30951
H         -2.19489       -5.83348        1.96086
H         -0.18400       -5.27587        4.22690
H          0.29658       -5.48098        2.54546
H          0.78263       -4.03769        3.42417
H          0.60964       -3.48847       -3.06639
H          0.27269       -5.06200       -2.35818
H         -0.35206       -4.66722       -3.95775
H         -2.17579       -5.64622       -1.69260
H         -3.40883       -4.39433       -1.76779
H         -2.79397       -5.12487       -3.25176
H         -1.20788       -1.83698       -3.48369
H         -2.33329       -2.98040       -4.18596
H         -2.80464       -2.05451       -2.76284
H         -0.19526       -6.81623        0.86549
H         -0.22856       -6.62415       -0.88933
H          0.64484       -5.43886        0.11113
C          5.84473        1.63519       -2.49511
C          5.95202       -1.71001       -1.41139
C          3.78569       -2.90856       -1.28483
C          4.23321       -1.40235       -3.23323
C          4.15027        3.52703        1.96539
C          6.20487        2.68759        0.86283
C          4.60461        4.16088       -0.41332
H          6.50593       -0.84363       -1.76373
H          6.11492       -1.79607       -0.33761
H          6.37835       -2.59074       -1.89104
H          4.30868       -3.76326       -1.71328
H          3.80620       -3.01279       -0.20034
H          2.75009       -2.97100       -1.61527
H          4.65316       -2.23878       -3.79127
H          3.16989       -1.34123       -3.46429
H          4.70143       -0.48897       -3.59228
H          3.15010        3.94183        1.84989
H          4.10352        2.71489        2.69050
H          4.77602        4.31449        2.38487
H          6.74059        3.54045        1.27888
H          6.29673        1.85597        1.56065
H          6.70436        2.40469       -0.06038
H          5.01921        3.86380       -1.37355
H          5.13530        5.05194       -0.07890
H          3.56042        4.42907       -0.57222
H          6.30587        0.98060       -3.23443
H          4.82571        1.87157       -2.80422
H          6.43069        2.55252       -2.44013
