72
-108.39571772
Cl        -1.88584        0.27145        2.85481
Cl         0.86050       -1.28717        2.69182
P          1.20670       -1.01591       -0.27080
P         -2.23407        0.18506       -0.38899
C         -3.46182       -1.25607       -0.24852
C         -4.19285       -1.15290        1.08697
C         -4.47277       -1.24160       -1.40193
C         -3.11225        1.86833       -0.17643
C         -4.46809        1.85202       -0.87505
C         -1.40602        0.30765       -2.07112
C         -1.29441       -0.99617       -2.84006
C          1.16942        0.29746       -1.52373
C         -0.03864        0.97746       -1.99274
C          0.40351        2.10370       -2.81871
C          1.85339        2.09275       -2.87371
C          2.32573        0.96415       -2.09409
C         -2.67928       -2.56450       -0.26811
H         -4.84279       -2.01663        1.23692
H         -3.48858       -1.12272        1.91796
H         -5.28807       -0.54398       -1.22089
H         -4.92959       -2.22494       -1.52501
C         -3.29591        2.19904        1.29988
H         -4.37982        1.48670       -1.89861
H         -4.88712        2.85866       -0.92010
H         -2.07453        0.97081       -2.63237
H         -0.67378       -1.70699       -2.30094
H         -0.81794       -0.83446       -3.80917
H         -2.25709       -1.46733       -3.02983
H         -0.24984        2.76232       -3.39433
H          2.47949        2.78747       -3.43823
Pd        -0.56032       -0.39763        1.17933
H          3.36522        0.69024       -1.90218
C         -2.24965        2.94732       -0.82458
H         -5.18681        1.23698       -0.33696
H         -2.33521        2.29204        1.80282
H         -3.82352        3.14608        1.42277
H         -3.86871        1.43307        1.81880
H         -2.25389        2.87095       -1.91149
H         -2.61451        3.94414       -0.57073
H         -1.22240        2.86985       -0.48393
H         -4.82131       -0.26583        1.13619
H         -4.01136       -0.96774       -2.34816
H         -1.92968       -2.59663        0.52248
H         -3.34497       -3.41602       -0.11761
H         -2.17113       -2.71900       -1.21675
C          2.89096       -1.09263        0.38884
C          3.34635       -2.12530        1.16911
C          4.67667       -1.84496        1.48264
C          4.97930       -0.65141        0.87427
O          3.89248       -0.17959        0.19588
H          2.76845       -2.98039        1.48268
H          5.33608       -2.44661        2.08661
H          5.93539       -0.14453        0.91716
C          0.89133       -2.64444       -0.96622
C          1.69848       -3.20257       -1.92581
C          1.16315       -4.45599       -2.22810
C          0.05025       -4.60766       -1.43713
O         -0.12953       -3.49921       -0.65882
H          2.57847       -2.74824       -2.35354
H          1.54958       -5.16659       -2.94035
H         -0.60067       -5.47304       -1.42101
Fe         1.20104        2.20814       -0.94392
C          2.87392        2.64112        0.22251
C          1.87707        1.93458        0.99951
C          0.66079        2.71715        0.98438
C          0.89662        3.90527        0.18429
C          2.26527        3.85231       -0.29497
H          3.90262        2.31218        0.06185
H          2.02402        0.99804        1.54123
H         -0.23928        2.47921        1.55239
H          0.19047        4.72168        0.01616
H          2.76236        4.61031       -0.90445
