111
-148.55509916
P         -2.50830        2.37762        0.40802
P         -0.03598        0.36200        0.43871
C         -1.74155        1.90530        1.97886
C         -0.69638        1.00816        1.98859
C         -2.84068        4.19528        0.35100
C         -2.24897        4.80023       -0.90322
C         -2.22193        2.41691        3.16734
H         -3.03352        3.12607        3.15182
C         -1.66179        2.01489        4.36763
H         -2.03726        2.41308        5.29613
C         -0.62880        1.09763        4.37661
H         -0.19755        0.77760        5.31085
C         -0.14696        0.59059        3.18313
H          0.65434       -0.13200        3.17392
Pd        -1.30490        1.32897       -1.26129
Cl        -2.86240        2.04908       -2.70438
Cl        -0.18032       -0.03276       -2.65297
C         -4.38026        4.27243        0.41814
C         -4.23140        1.72020        0.22236
H         -1.16935        4.63818       -0.95209
H         -2.68975        4.34587       -1.79240
H         -2.43325        5.87601       -0.95585
H         -4.72786        5.15420       -0.13973
H         -4.70244        4.43423        1.45730
H         -4.20843        1.01645       -0.62094
C         -5.04724        2.98017       -0.13150
C         -4.69705        1.01862        1.48071
H         -2.37891        4.63425        1.24586
H         -6.07120        2.87640        0.25606
H         -5.15005        3.06189       -1.22360
H         -5.69291        0.58724        1.35449
H         -4.01283        0.21582        1.76526
H         -4.74706        1.71841        2.31630
C         -0.97622       -4.06524       -0.03050
C          0.27164       -3.66697        0.52016
C          0.53165       -2.31173        0.63769
C         -0.42077       -1.37975        0.31838
C         -1.67764       -1.76293       -0.07052
C         -1.99940       -3.10038       -0.22948
O         -1.16890       -5.40421       -0.45725
C          1.34960       -4.64737        1.01313
H          1.49587       -1.96798        0.97254
H         -2.40869       -0.99989       -0.27561
C         -3.44012       -3.44826       -0.63890
C          4.49419        0.80433        0.12266
C          3.81339        1.41535        1.20657
C          2.43710        1.27856        1.27937
C          1.73490        0.63134        0.29495
C          2.38087        0.14910       -0.81338
C          3.75386        0.25100       -0.95224
O          5.91136        0.71151        0.13590
C          4.55197        2.17876        2.31694
H          1.89464        1.66819        2.12156
H          1.78615       -0.31112       -1.58152
C          4.41165       -0.26115       -2.24329
C          1.81997       -4.21958        2.42094
C          0.82428       -6.08836        1.13322
C          2.54926       -4.61539        0.05166
C         -3.76922       -4.93394       -0.41305
C         -4.43380       -2.63029        0.21517
C         -3.64541       -3.09192       -2.12095
C         -0.73564       -5.62134       -1.78988
H          2.53741       -4.93356        2.82466
H          2.30469       -3.24474        2.40695
H          0.97583       -4.16589        3.10788
H         -0.07053       -6.12055        1.75383
H          0.56886       -6.49797        0.15897
H          1.57206       -6.74329        1.57984
H          2.97839       -3.61548       -0.00029
H          3.33167       -5.29816        0.38192
H          2.25449       -4.90385       -0.95562
H         -3.17388       -5.57258       -1.06125
H         -3.56442       -5.22032        0.61791
H         -4.81873       -5.14008       -0.62184
H         -5.46103       -2.93165        0.01154
H         -4.24345       -2.77961        1.27759
H         -4.36376       -1.56506        0.00397
H         -3.44905       -2.03469       -2.29753
H         -2.97526       -3.66325       -2.75996
H         -4.66792       -3.30073       -2.43421
H         -0.87897       -6.67068       -2.04846
H         -1.31011       -5.00037       -2.47503
H          0.31845       -5.36617       -1.88701
C          6.40511       -0.48299        0.72919
C          4.94274        1.19940        3.43396
C          5.80617        2.88085        1.76510
C          3.64782        3.27819        2.91924
C          5.70372        0.51461       -2.55717
C          4.71437       -1.76024       -2.09875
C          3.46521       -0.06297       -3.44971
H          5.45563        1.71639        4.24461
H          4.05889        0.71457        3.84803
H          5.60382        0.42062        3.06137
H          6.53320        2.16132        1.39647
H          5.54381        3.54314        0.94077
H          6.29393        3.47597        2.53672
H          2.81267        2.85446        3.47510
H          4.20918        3.90302        3.61357
H          3.24843        3.92312        2.13695
H          6.13154        0.19556       -3.50726
H          5.50379        1.58390       -2.61711
H          6.45712        0.35939       -1.78921
H          5.37310       -1.95047       -1.25447
H          3.79571       -2.32318       -1.93672
H          5.19385       -2.15033       -2.99613
H          3.97262       -0.30346       -4.38357
H          3.12508        0.97042       -3.50953
H          2.58958       -0.70713       -3.38757
H          7.08084       -0.23113        1.54647
H          5.58120       -1.08719        1.11127
H          6.96335       -1.05721       -0.00992
