58
-89.85743404
P          1.57052       -0.14392        0.76167
C          2.64007        1.25053        1.12790
C          3.13469        1.45804        2.39572
C          3.96510        2.53726        2.63996
C          4.30021        3.39662        1.61191
C          3.81307        3.17693        0.33881
C          2.98334        2.09757        0.09915
H          2.61612        1.89036       -0.89312
H          2.87983        0.77284        3.18758
C          2.51156       -1.47813        0.01379
C          1.86672       -2.64629       -0.32294
C          2.57534       -3.67643       -0.91430
C          3.92494       -3.52693       -1.16608
C          4.56682       -2.35131       -0.82957
C          3.85530       -1.32332       -0.23807
H          4.34035       -0.39669        0.02232
H          0.81090       -2.74579       -0.12991
C          0.72721       -0.79554        2.25598
C         -0.13293        0.22529        2.98665
C         -0.97804        1.11111        2.07851
P         -1.74494        0.24924        0.63704
C         -2.07888       -1.49314        0.90344
C         -1.75284       -2.39394       -0.08546
C         -1.97126       -3.74436        0.11611
C         -2.52523       -4.18020        1.30365
C         -2.86728       -3.27061        2.28529
C         -2.64478       -1.92031        2.08271
H         -2.90976       -1.19734        2.83767
H         -1.34812       -2.03519       -1.01852
C         -3.21359        1.11870        0.08746
C         -3.18113        2.48721       -0.05195
C         -4.30553        3.15831       -0.49907
C         -5.45192        2.45215       -0.80651
C         -5.47702        1.07805       -0.67078
C         -4.35132        0.40987       -0.22376
H         -4.35183       -0.66332       -0.12074
H         -2.27439        3.02393        0.17871
Pd         0.01052        0.38034       -0.87975
Cl         1.67725        0.39011       -2.38683
Cl        -1.52789        0.86732       -2.44307
H         -1.77957        1.60309        2.63496
H         -0.36844        1.90759        1.64476
H         -0.78522       -0.30196        3.69855
H          0.50468        0.86378        3.61576
H          0.12152       -1.63264        1.90665
H          1.49018       -1.22469        2.90954
H          4.35199        2.70506        3.63168
H          4.08175        3.84013       -0.46691
H          2.07298       -4.59166       -1.18126
H          5.61877       -2.23238       -1.03083
H         -1.71508       -4.45296       -0.65438
H         -3.30593       -3.61137        3.20872
H         -4.28369        4.22974       -0.61220
H         -6.36946        0.52620       -0.91626
H          4.94780        4.23690        1.80245
H          4.47762       -4.32791       -1.62941
H         -2.69722       -5.23234        1.46220
H         -6.32720        2.97407       -1.15751
