105
-153.06464014
Cl        -0.01795        1.89937        3.11330
Pd        -0.48154        1.31671        0.98726
P         -1.08600        0.51100       -1.14150
N         -0.68350       -0.99450       -1.96295
C          0.22543       -1.99435       -1.61939
C          0.35323       -2.48546       -0.29545
C          1.29561       -3.50093       -0.02510
C          1.39350       -4.05587        1.37701
C          2.62576       -4.93771        1.63699
C          2.87331       -5.89851        0.47136
C          3.09245       -5.11663       -0.83149
C          2.07162       -4.03075       -1.06050
C          1.89869       -3.55763       -2.35491
C          0.99232       -2.56873       -2.63191
H          0.87851       -2.20432       -3.63799
H          2.49772       -3.97391       -3.14710
H          4.09018       -4.66205       -0.82646
H          3.72650       -6.55885        0.68238
H          3.50759       -4.29863        1.77167
H          1.38985       -3.22146        2.08682
C         -0.65131       -2.12591        0.73537
C         -0.24116       -1.52067        1.95417
C         -1.18040       -1.38698        2.98112
C         -2.47437       -1.80651        2.81414
C         -2.89855       -2.38443        1.62380
C         -4.33038       -2.85472        1.53309
C         -4.78462       -3.22280        0.11162
C         -3.70054       -4.02343       -0.61431
C         -2.39953       -3.21316       -0.71118
C         -1.98640       -2.54591        0.57875
H         -1.58200       -3.85812       -1.05679
H         -4.04518       -4.33197       -1.61148
H         -4.99643       -2.30773       -0.45487
H         -4.98439       -2.08016        1.95281
H         -3.18307       -1.68932        3.61649
H         -0.87819       -0.92004        3.90207
N          1.05083       -1.00548        2.13822
P          1.59970        0.21519        0.99157
C          2.61552       -0.33839       -0.36517
C          2.42839        0.23793       -1.59656
C          3.24839       -0.11940       -2.65100
C          4.27101       -1.04088       -2.46717
C          4.45164       -1.59905       -1.20798
C          3.62830       -1.24203       -0.15511
H          3.76598       -1.66436        0.82760
H          5.23876       -2.31792       -1.05795
C          5.12670       -1.45916       -3.61131
H          3.09431        0.31246       -3.62496
H          1.63431        0.95337       -1.72662
C          2.52152        1.53427        1.78885
C          3.24934        1.28062        2.92634
C          3.96095        2.30359        3.52668
C          3.94524        3.58468        2.99123
C          3.21980        3.81441        1.82988
C          2.50967        2.79050        1.22977
H          1.94324        2.96629        0.32825
H          3.21296        4.80087        1.39870
C          4.72653        4.68195        3.62610
H          4.53400        2.11209        4.41778
H          3.26503        0.28433        3.33766
H          1.19869       -0.56626        3.03762
H         -0.96068       -0.90320       -2.93226
C         -0.60243        1.88865       -2.19653
C         -0.86045        3.17975       -1.80265
C         -0.47353        4.23984       -2.59959
C          0.17001        4.01518       -3.80847
C          0.42448        2.70618       -4.19350
C          0.03336        1.64895       -3.39274
H          0.24161        0.63565       -3.69206
H          0.93482        2.51997       -5.12309
C          0.61503        5.15682       -4.65474
H         -0.66860        5.25104       -2.28558
H         -1.36940        3.35238       -0.86942
C         -2.88215        0.52851       -1.08310
C         -3.56117        0.77916       -2.25194
C         -4.94482        0.78872       -2.25716
C         -5.65688        0.55813       -1.08815
C         -4.95328        0.29886        0.07935
C         -3.57123        0.27529        0.07755
H         -3.02361        0.07161        0.98327
H         -5.49541        0.11661        0.99129
C         -7.14568        0.54390       -1.09300
H         -5.48008        0.97870       -3.17174
H         -3.00550        0.96755       -3.15734
Cl        -2.28962        2.65998        1.00361
H          3.08609       -5.79980       -1.69051
H          2.51772       -5.49117        2.58050
H          2.00693       -6.56218        0.35694
H          0.47987       -4.62416        1.58799
H         -3.50896       -4.95493       -0.06704
H         -2.50865       -2.43864       -1.47906
H         -4.45009       -3.72309        2.19197
H         -5.73200       -3.77975        0.13449
H          5.25898       -0.64280       -4.32274
H          6.11684       -1.76609       -3.27156
H          4.67767       -2.29949       -4.14262
H          4.25082        5.64970        3.46123
H          4.80884        4.53393        4.70375
H          5.73554        4.72787        3.21414
H         -0.05852        6.00878       -4.55179
H          1.61626        5.48274       -4.36964
H          0.63872        4.87976       -5.70962
H         -7.52260       -0.46559       -1.26320
H         -7.54487        0.89636       -0.14091
H         -7.54365        1.18905       -1.87746
