58
-89.86277313
P          1.69717       -0.30904        0.95752
C          1.81318        1.49209        0.97321
C          2.02615        2.11590       -0.23578
C          2.08149        3.49517       -0.30745
C          1.92508        4.24623        0.83965
C          1.72221        3.62014        2.05335
C          1.66882        2.23993        2.12049
H          1.51887        1.75097        3.06807
H          2.13558        1.51245       -1.12320
C          3.26747       -1.04245        0.49644
C          3.30980       -2.37759        0.16709
C          4.51279       -2.95687       -0.19617
C          5.66310       -2.19311       -0.22551
C          5.61451       -0.85332        0.10614
C          4.41043       -0.27681        0.46824
H          4.35531        0.76868        0.72523
H          2.40064       -2.95819        0.18673
C          1.18979       -1.02582        2.58047
C         -0.31101       -1.21708        2.73888
C         -1.13004        0.01864        2.37492
P         -1.69152       -0.09424        0.62792
C         -2.98085       -1.34988        0.51915
C         -3.00384       -2.24656       -0.52475
C         -3.98553       -3.21778       -0.58547
C         -4.95054       -3.28110        0.39929
C         -4.93732       -2.37210        1.43818
C         -3.95067       -1.40376        1.49607
H         -3.94166       -0.68382        2.29829
H         -2.27116       -2.16418       -1.30871
C         -2.30886        1.49891        0.07958
C         -1.47932        2.59434        0.14268
C         -1.93106        3.82642       -0.29306
C         -3.21281        3.95081       -0.79157
C         -4.04092        2.84725       -0.85753
C         -3.58496        1.61638       -0.42102
H         -4.21584        0.74400       -0.47452
H         -0.47604        2.47924        0.51737
Pd         0.13931       -0.44105       -0.76908
Cl         1.88938       -0.63970       -2.16905
Cl        -1.35168       -0.46133       -2.44831
H         -2.02392        0.12006        2.99385
H         -0.55425        0.93472        2.50568
H         -0.64604       -2.05493        2.10935
H         -0.53088       -1.53172        3.77156
H          1.71901       -1.97568        2.69031
H          1.58421       -0.36728        3.35570
H          2.24030        3.98020       -1.25648
H          1.60528        4.20710        2.94960
H          4.54986       -4.00116       -0.45942
H          6.51150       -0.25667        0.08022
H         -4.00158       -3.91743       -1.40498
H         -5.69450       -2.41590        2.20379
H         -1.28065        4.68437       -0.24774
H         -5.03924        2.94294       -1.25180
H          1.96424        5.32213        0.78830
H          6.60016       -2.64302       -0.51045
H         -5.71840       -4.03612        0.35350
H         -3.56612        4.90984       -1.13378
