75
-122.81169069
P          1.81143       -0.63203        0.11641
C          3.11097       -1.38105       -0.88047
C          4.40567       -1.34954       -0.41414
C          5.41636       -1.94563       -1.14645
C          5.12066       -2.57959       -2.33664
C          3.81778       -2.62568       -2.79095
C          2.80959       -2.02950       -2.05599
H          1.78794       -2.06604       -2.39803
H          3.58553       -3.12454       -3.71749
H          5.90716       -3.04315       -2.90954
H          6.43142       -1.91815       -0.78568
H          4.61799       -0.87539        0.53129
C          1.76671       -1.55629        1.66366
C          1.39845       -0.94057        2.83777
C          1.45373       -1.63563        4.03119
C          1.87208       -2.95118        4.04076
C          2.23167       -3.57113        2.86061
C          2.18101       -2.86911        1.66979
H          2.47495       -3.33662        0.74367
H          2.55537       -4.59891        2.86657
H          1.91136       -3.49675        4.96940
H          1.16200       -1.15318        4.94952
H          1.05005        0.07776        2.81213
C          2.17678        1.09476        0.48975
C          3.34637        1.73526        0.15326
C          3.51339        3.08710        0.41881
C          2.46343        3.78886        1.00970
C          1.28007        3.16446        1.33555
C          1.12957        1.79367        1.07284
O         -0.07451        1.12588        1.35045
C         -1.25282        1.81574        1.02149
C         -1.40426        3.18106        1.31120
C         -2.57994        3.81797        0.97985
C         -3.61840        3.13881        0.34352
C         -3.43860        1.80067        0.02081
C         -2.27518        1.15131        0.36065
P         -1.91610       -0.52900       -0.16260
C         -1.62125       -1.60188        1.24604
C         -1.91059       -1.17200        2.52071
C         -1.79379       -2.04890        3.58345
C         -1.39328       -3.35133        3.35907
C         -1.10548       -3.77791        2.07761
C         -1.22396       -2.89906        1.01580
H         -1.02355       -3.22137        0.00584
H         -0.78988       -4.79338        1.90358
H         -1.29800       -4.03467        4.18702
H         -2.01388       -1.71511        4.58407
H         -2.22987       -0.15437        2.67702
C         -3.35690       -1.20969       -1.01256
C         -4.28866       -1.88845       -0.25895
C         -5.41370       -2.42028       -0.86307
C         -5.60217       -2.26599       -2.22185
C         -4.67172       -1.57789       -2.97406
C         -3.55137       -1.04784       -2.36422
H         -2.83496       -0.48489       -2.93569
H         -4.82088       -1.44835       -4.03348
H         -6.47793       -2.67959       -2.69483
H         -6.14068       -2.95399       -0.27321
H         -4.13104       -2.00136        0.80184
Pd         0.06385       -0.02874       -1.38065
Cl        -1.35271        1.01102       -2.79750
Cl         1.74055        0.79629       -2.65661
H         -4.20310        1.27018       -0.52016
C         -4.86381        3.85058       -0.04799
H         -5.08169        4.66972        0.63850
H         -5.72054        3.17544       -0.04141
H         -4.77095        4.26708       -1.05173
H         -2.68839        4.86422        1.20527
S         -0.06440        4.05178        2.07982
H          2.57014        4.84116        1.20574
C          4.76595        3.78459        0.02386
H          4.12683        1.19170       -0.34806
H          4.95497        4.64796        0.66305
H          5.62690        3.11934        0.10176
H          4.70342        4.13514       -1.00708
