171
-217.84380897
P         -1.64405        0.43562       -0.34924
P          1.61313       -0.36834       -0.36746
C         -0.89851        1.42089       -1.65173
C          0.87626       -1.29486       -1.71408
C         -0.07952        0.83839       -2.61341
C          0.57819        1.67475       -3.53625
C          0.36343        3.04203       -3.48457
C         -0.47358        3.59657       -2.53953
C         -1.09525        2.77992       -1.61561
C          1.06620       -2.65380       -1.76689
C          0.47888       -3.39678       -2.77197
C         -0.30449       -2.76829       -3.71695
C         -0.50687       -1.39821       -3.68066
C          0.10214       -0.63911       -2.66394
Cl         1.53593        0.54413        2.82816
Cl        -1.53357       -0.39735        2.85011
C         -1.33106       -0.74093       -4.73133
C          1.51927        1.12719       -4.55218
H         -0.63384        4.66201       -2.51333
H         -1.73270        3.20493       -0.85678
H          1.68020       -3.13495       -1.02298
H          0.63488       -4.46212       -2.81882
H          0.86914        3.67564       -4.19370
H         -0.76650       -3.34466       -4.50062
C         -3.90262       -3.30460       -1.52406
C         -2.90859       -3.38535       -0.55622
C         -2.20736       -2.22758       -0.24904
C         -2.48633       -1.04861       -0.89414
C         -3.47085       -0.98444       -1.85011
C         -4.21195       -2.11491       -2.17479
H         -4.46129       -4.18818       -1.76469
H         -1.45562       -2.23823        0.52173
H         -3.67986       -0.03962       -2.32347
C         -4.42998        2.80907        2.33328
C         -4.96500        1.83975        1.49374
C         -4.09237        1.15277        0.66108
C         -2.74675        1.42388        0.67527
C         -2.23543        2.38727        1.50968
C         -3.07122        3.09798        2.36233
H         -5.08035        3.34652        2.99736
H         -4.46440        0.38473        0.00606
H         -1.17299        2.55921        1.51167
C          4.27874       -2.92519        2.27373
C          2.92130       -3.22002        2.21059
C          2.12832       -2.45140        1.36839
C          2.66895       -1.41354        0.65093
C          4.00661       -1.12279        0.74520
C          4.84305       -1.87763        1.55497
H          4.91044       -3.52341        2.90134
H          1.07489       -2.65217        1.27865
H          4.40318       -0.29123        0.18969
C          4.04347        3.19095       -1.71941
C          3.00972        3.39618       -0.81428
C          2.26565        2.29229       -0.41706
C          2.54036        1.05140       -0.93436
C          3.55341        0.86658       -1.84275
C          4.33473        1.94111       -2.25131
H          4.65418        4.02823       -2.00253
H          1.47341        2.38641        0.30529
H          3.73567       -0.12714       -2.21586
Pd         0.00225        0.01554        1.26210
C         -3.50045       -5.84198       -0.22910
C         -2.59243       -4.67745        0.20977
C         -2.80310       -4.43526        1.71671
C         -1.12978       -5.07424       -0.05220
H         -3.26159       -6.74838        0.32715
H         -4.55002       -5.61092       -0.04799
H         -3.37155       -6.06229       -1.28865
H         -2.58807       -5.33607        2.29118
H         -2.15526       -3.64186        2.08654
H         -3.83329       -4.14284        1.91851
H         -0.86473       -5.97626        0.49896
H         -0.96890       -5.26675       -1.11228
H         -0.44835       -4.28096        0.25022
C         -6.12835       -3.33952       -3.32560
C         -5.37118       -2.00520       -3.17805
C         -4.82358       -1.60258       -4.55713
C         -6.36606       -0.93667       -2.68721
H         -6.95525       -3.23868       -4.02852
H         -5.47226       -4.12438       -3.70150
H         -6.54472       -3.66171       -2.37129
H         -4.31277       -0.64169       -4.51222
H         -4.11815       -2.34877       -4.92130
H         -5.62876       -1.51742       -5.28673
H         -7.22212       -0.86260       -3.35762
H         -6.73675       -1.18340       -1.69251
H         -5.89763        0.04534       -2.63893
C         -7.24472        2.26351        2.54624
C         -6.46239        1.50267        1.45852
C         -6.65223       -0.00885        1.69309
C         -7.03075        1.88945        0.08189
H         -8.30030        1.99287        2.52369
H         -6.86351        2.02718        3.53955
H         -7.17941        3.34109        2.39723
H         -7.70983       -0.27165        1.70595
H         -6.17493       -0.59803        0.91117
H         -6.21818       -0.30675        2.64727
H         -8.09225        1.65153        0.01541
H         -6.91088        2.95762       -0.09810
H         -6.51672        1.35800       -0.71741
C         -3.23076        5.48191        3.13746
C         -2.53043        4.12919        3.36258
C         -1.01267        4.33524        3.19900
C         -2.80263        3.62986        4.79305
H         -2.84339        6.23917        3.81890
H         -3.07109        5.83224        2.11782
H         -4.30492        5.40648        3.30154
H         -0.46721        3.40918        3.38019
H         -0.77813        4.68750        2.19554
H         -0.64313        5.07816        3.90560
H         -2.41201        4.32894        5.53222
H         -3.87043        3.51277        4.97427
H         -2.32781        2.66264        4.95740
C          2.11906       -5.58078        2.05642
C          2.29790       -4.38030        3.00021
C          0.92679       -3.95751        3.56788
C          3.19155       -4.79973        4.18436
H          1.64709       -6.41760        2.57096
H          1.49847       -5.31411        1.20224
H          3.08231       -5.91728        1.67340
H          1.01912       -3.04855        4.16199
H          0.20463       -3.76920        2.77576
H          0.51187       -4.73750        4.20594
H          2.69976       -5.56151        4.78921
H          4.13634       -5.21988        3.84116
H          3.40606       -3.94789        4.82952
C          6.95431       -1.66740        0.22230
C          6.33460       -1.52078        1.62441
C          7.09755       -2.43945        2.59757
C          6.48516       -0.06523        2.10660
H          6.47067       -1.00466       -0.49413
H          8.01672       -1.42486        0.23710
H          6.84528       -2.68871       -0.14203
H          7.03886       -3.48096        2.28208
H          8.15214       -2.16722        2.63944
H          6.69592       -2.35994        3.60759
H          7.53591        0.21105        2.19204
H          6.01331        0.63308        1.41626
H          6.02007        0.06586        3.08338
C          3.95885        5.23967        0.58800
C          2.74866        4.80084       -0.25533
C          1.49235        4.82761        0.63540
C          2.53909        5.78799       -1.41896
H          3.80010        6.23063        1.01294
H          4.12808        4.54270        1.40864
H          4.86658        5.27431       -0.01355
H          1.61526        4.18131        1.50419
H          1.29756        5.83605        1.00011
H          0.61401        4.49933        0.08026
H          2.31243        6.78686       -1.04658
H          3.42764        5.86131       -2.04456
H          1.71135        5.46781       -2.05056
C          5.45056        2.78279       -4.34819
C          5.53555        1.76748       -3.19210
C          5.58156        0.34995       -3.79588
C          6.82909        2.00478       -2.39209
H          4.52542        2.65699       -4.90914
H          5.48422        3.80834       -3.98328
H          6.28218        2.65259       -5.04054
H          5.71343       -0.40482       -3.02108
H          4.66549        0.12714       -4.34250
H          6.41500        0.25278       -4.49147
H          6.85579        3.01296       -1.97965
H          6.90306        1.30321       -1.56149
H          7.70847        1.87631       -3.02292
H         -2.02590       -1.44716       -5.18596
H          2.47723        1.64535       -4.50461
H         -0.70183       -0.34073       -5.52695
H         -1.91283        0.08292       -4.31543
H          1.12198        1.25102       -5.56062
H          1.71317        0.06597       -4.39168
