105
-153.06367955
Cl         0.00176        1.98449        3.08242
Pd        -0.45157        1.34269        0.97295
P         -1.09844        0.51784       -1.14351
N         -0.67884       -0.98613       -1.96122
C          0.22460       -1.98889       -1.61176
C          0.34706       -2.47732       -0.28642
C          1.28735       -3.49334       -0.01051
C          1.37967       -4.04590        1.39277
C          2.61639       -4.91892        1.66050
C          2.87134       -5.88519        0.50098
C          3.08784       -5.11069       -0.80682
C          2.06683       -4.02611       -1.04179
C          1.89831       -3.55618       -2.33798
C          0.99361       -2.56725       -2.62037
H          0.88400       -2.20473       -3.62760
H          2.50072       -3.97366       -3.12700
H          4.08555       -4.65600       -0.80620
H          3.72835       -6.53880        0.71743
H          3.49424       -4.27396        1.79301
H          1.36601       -3.21108        2.10190
C         -0.66197       -2.11556        0.73915
C         -0.25865       -1.50495        1.95719
C         -1.20400       -1.36470        2.97741
C         -2.49594       -1.78917        2.80714
C         -2.91216       -2.37777        1.61928
C         -4.34054       -2.85816        1.52645
C         -4.78749       -3.23732        0.10557
C         -3.69586       -4.03526       -0.61194
C         -2.39951       -3.21750       -0.70884
C         -1.99484       -2.54120        0.57909
H         -1.57704       -3.85946       -1.04826
H         -4.03501       -4.35175       -1.60851
H         -5.00301       -2.32692       -0.46699
H         -5.00129       -2.08598        1.93988
H         -3.20875       -1.66907        3.60541
H         -0.90723       -0.89233        3.89736
N          1.03549       -0.99919        2.15166
P          1.61229        0.21702        1.01476
C          2.61105       -0.33426       -0.35503
C          2.41318        0.25061       -1.58090
C          3.22100       -0.10311       -2.64599
C          4.23404       -1.03870       -2.48122
C          4.43815       -1.59083       -1.22303
C          3.62718       -1.23746       -0.15940
H          3.77925       -1.65985        0.82118
H          5.23496       -2.30081       -1.08201
C          5.10816       -1.41819       -3.62491
H          3.06590        0.34393       -3.61289
H          1.62180        0.97154       -1.69782
C          2.55578        1.51172        1.82549
C          3.26192        1.23820        2.97204
C          3.99175        2.24173        3.58323
C          4.01602        3.52341        3.04958
C          3.31193        3.77305        1.87925
C          2.58353        2.76848        1.26832
H          2.03386        2.95977        0.35966
H          3.33636        4.75983        1.44942
C          4.81716        4.59934        3.69610
H          4.54814        2.03437        4.48132
H          3.24734        0.24121        3.38168
H          1.17702       -0.55974        3.05199
H         -0.95770       -0.90135       -2.93069
C         -0.62962        1.89285       -2.20934
C         -0.91679        3.18401       -1.83658
C         -0.54244        4.24045       -2.64426
C          0.11874        4.01191       -3.84284
C          0.40379        2.70305       -4.20626
C          0.02464        1.64955       -3.39485
H          0.25583        0.63648       -3.67764
H          0.92828        2.51412       -5.12738
C          0.55068        5.14993       -4.70069
H         -0.76067        5.25180       -2.34639
H         -1.43675        3.35986       -0.91030
C         -2.89437        0.51373       -1.08800
C         -3.57518        0.74342       -2.26012
C         -4.95887        0.73768       -2.26630
C         -5.66921        0.51338       -1.09499
C         -4.96369        0.27550        0.07588
C         -3.58133        0.26616        0.07498
H         -3.03102        0.08074        0.98324
H         -5.50452        0.09947        0.98979
C         -7.15780        0.48375       -1.09996
H         -5.49548        0.91118       -3.18335
H         -3.02090        0.92778       -3.16720
Cl        -2.30715        2.62147        0.95417
H          3.08020       -5.79903       -1.66170
H          2.50962       -5.46735        2.60710
H          2.00938       -6.55512        0.38971
H          0.46866       -4.62026        1.59854
H         -3.50046       -4.96237       -0.05859
H         -2.51041       -2.44766       -1.48118
H         -4.45650       -3.72371        2.18971
H         -5.73144       -3.80005        0.12839
H          5.98309       -0.76879       -3.67642
H          5.45695       -2.44738       -3.52819
H          4.57285       -1.33881       -4.57218
H          4.36778        5.57907        3.52819
H          4.88334        4.44694        4.77425
H          5.83170        4.62079        3.29588
H          1.54852        5.48951       -4.41970
H          0.57660        4.86255       -5.75274
H         -0.13191        5.99559       -4.60579
H         -7.56092        0.85445       -0.15650
H         -7.56211        1.10608       -1.89947
H         -7.52430       -0.53328       -1.24640
