111
-148.55734472
P         -2.59347        1.92958        1.02957
P          0.16590        0.50689        0.43790
C         -1.44908        1.59561        2.39347
C         -0.22428        1.02515        2.12250
C         -3.49152        3.53145        1.25843
C         -2.94898        4.60493        0.34034
C         -1.79530        1.89925        3.69455
H         -2.76196        2.32769        3.90287
C         -0.90611        1.63647        4.72246
H         -1.17523        1.87286        5.73899
C          0.32376        1.06956        4.44790
H          1.01469        0.86246        5.24847
C          0.66379        0.75845        3.14377
H          1.61223        0.29900        2.91448
Pd        -1.37076        1.63973       -0.89936
Cl        -3.08297        2.37141       -2.14006
Cl         0.04911        1.20458       -2.58954
C         -4.95797        3.14140        0.99502
C         -4.02314        0.75758        0.94216
H         -1.88685        4.78440        0.52347
H         -3.05568        4.31123       -0.70489
H         -3.48114        5.54985        0.47261
H         -5.18585        3.32395       -0.06425
H         -5.63743        3.79691        1.56081
H         -4.09931        0.45074       -0.10974
C         -5.22113        1.64510        1.32884
C         -3.81413       -0.44360        1.83824
H         -3.35577        3.81831        2.30891
H         -5.40719        1.53777        2.40636
H         -6.13729        1.28774        0.83453
H         -4.67416       -1.11670        1.81194
H         -2.93254       -1.01201        1.53638
H         -3.66579       -0.13331        2.87417
C         -1.25576       -3.78427       -0.14148
C         -1.00045       -3.29878        1.16666
C         -0.54901       -1.99751        1.30774
C         -0.40979       -1.17646        0.22005
C         -0.73831       -1.61371       -1.03473
C         -1.21154       -2.89617       -1.24643
O         -1.52027       -5.16450       -0.34697
C         -1.17673       -4.17048        2.41965
H         -0.29500       -1.60541        2.27658
H         -0.60978       -0.92945       -1.85475
C         -1.65391       -3.29840       -2.66177
C          4.61180        0.62752       -0.53131
C          4.05898       -0.48865        0.14717
C          2.69886       -0.48786        0.40724
C          1.91818        0.59378        0.09262
C          2.46712        1.72017       -0.46036
C          3.81891        1.78207       -0.75743
O          5.94533        0.57410       -1.01732
C          4.89605       -1.70584        0.57081
H          2.22258       -1.34688        0.84811
H          1.81432        2.54661       -0.68219
C          4.39108        3.07238       -1.36487
C         -1.50708       -3.30028        3.65402
C         -2.34283       -5.15988        2.24352
C          0.12887       -4.93180        2.69496
C         -2.77317       -4.35413       -2.61580
C         -2.22162       -2.07508       -3.41919
C         -0.44394       -3.83919       -3.43815
C         -0.36080       -5.94179       -0.61870
H         -2.36422       -2.65690        3.45835
H         -1.74915       -3.92530        4.51328
H         -0.66511       -2.67309        3.94327
H         -2.14632       -5.86530        1.43987
H         -2.50949       -5.73545        3.15369
H         -3.26359       -4.62870        2.00444
H          0.03929       -5.55081        3.58729
H          0.39056       -5.57966        1.86196
H          0.95492       -4.23730        2.84694
H         -2.42822       -5.27965       -2.16197
H         -3.61846       -3.99117       -2.03204
H         -3.12962       -4.59130       -3.61787
H         -2.99919       -1.58371       -2.83484
H         -1.44795       -1.34207       -3.64222
H         -2.65842       -2.37722       -4.37061
H         -0.72533       -4.12221       -4.45210
H          0.33967       -3.08464       -3.50330
H         -0.02068       -4.71379       -2.94983
H          0.53305       -5.31760       -0.58337
H         -0.27642       -6.74013        0.11850
H         -0.44704       -6.39748       -1.60488
C          6.06154        0.04123       -2.33083
C          4.30279       -2.35884        1.84071
C          4.89101       -2.74490       -0.56076
C          6.34029       -1.29604        0.91136
C          4.28008        3.00192       -2.89562
C          3.60173        4.30609       -0.87107
C          5.85757        3.28269       -0.94639
H          4.17080       -1.62007        2.63085
H          3.33895       -2.82557        1.64270
H          4.96311       -3.13890        2.21900
H          5.32040       -2.33733       -1.47276
H          5.46636       -3.62762       -0.28287
H          3.87332       -3.06253       -0.78712
H          6.85556       -0.89644        0.04162
H          6.34892       -0.52951        1.68553
H          6.91511       -2.14880        1.27172
H          4.84248        2.16077       -3.29347
H          3.24103        2.87846       -3.20029
H          4.66241        3.91166       -3.35771
H          4.08244        5.22831       -1.19670
H          2.58667        4.31954       -1.26512
H          3.54898        4.32246        0.21722
H          6.24136        4.22943       -1.32570
H          6.49754        2.49205       -1.32978
H          5.94946        3.28976        0.13917
H          5.07840       -0.22406       -2.72175
H          6.52591        0.77895       -2.98502
H          6.69677       -0.84415       -2.31226
