45
-71.81765018
C          2.27507        1.47550        2.33883
P          1.49514        0.96120        0.77215
P         -1.02514        0.09774       -0.88962
C         -0.35178       -0.55520       -2.45546
Cl         1.46494       -1.69600        2.46989
H          2.81823        0.63987        2.77081
H         -0.77058       -0.01244       -3.29794
Cl        -1.09954       -2.76577        0.54383
C          0.43906        2.23683        0.05451
C         -0.65398        1.84990       -0.68916
C         -1.46252        2.79620       -1.28407
C         -1.16856        4.14016       -1.13495
C         -0.06775        4.52883       -0.39580
C          0.74066        3.57563        0.19851
H         -2.31734        2.47648       -1.85812
H         -1.79787        4.88276       -1.59721
H          0.16362        5.57527       -0.28342
H          1.60797        3.86733        0.76795
Pd         0.13489       -0.92070        0.83758
H         -0.59764       -1.60899       -2.55117
H          1.51306        1.80142        3.04100
H          0.72855       -0.44396       -2.46855
C         -5.48934       -0.61202       -0.37159
C         -4.69457       -0.34003        0.72425
C         -3.33792       -0.12717        0.55554
C         -2.78632       -0.19312       -0.70368
C         -3.57529       -0.45925       -1.79989
C         -4.93233       -0.67054       -1.63381
H         -6.54612       -0.77919       -0.24148
H         -5.12836       -0.29532        1.70969
H         -2.70478        0.08854        1.40193
H         -3.12995       -0.50039       -2.78069
H         -5.55318       -0.88138       -2.48906
C          4.48570       -0.52713       -2.30755
C          4.28592       -1.23475       -1.13824
C          3.38383       -0.76905       -0.19970
C          2.69621        0.39907       -0.43357
C          2.88372        1.10362       -1.60014
C          3.78488        0.64019       -2.54162
H          5.18734       -0.88904       -3.04127
H          4.82525       -2.15039       -0.95959
H          3.18616       -1.32047        0.70584
H          2.32214        2.00783       -1.77106
H          3.93761        1.18845       -3.45668
H          2.96893        2.29198        2.16060
