58
-89.86514920
P          1.67808        0.33953        0.84642
C          2.94512        1.59620        0.60297
C          2.69854        2.70747       -0.17105
C          3.67519        3.67498       -0.32181
C          4.89233        3.52933        0.31323
C          5.13202        2.42227        1.10250
C          4.15251        1.45644        1.25102
H          4.32242        0.59609        1.87919
H          1.74493        2.81315       -0.66209
C          2.25111       -1.30134        0.37732
C          1.34501       -2.33629        0.39929
C          1.73584       -3.60969        0.02974
C          3.03854       -3.83890       -0.36505
C          3.94408       -2.79666       -0.39901
C          3.54678       -1.52430       -0.02997
H          4.23980       -0.70143       -0.07633
H          0.32104       -2.13639        0.66175
C          1.27857        0.38219        2.64012
C          0.03931       -0.39027        3.05210
C         -1.25840        0.24303        2.57450
P         -1.67274       -0.07738        0.81063
C         -1.98222       -1.82619        0.51471
C         -2.10849       -2.72157        1.55328
C         -2.30523       -4.06382        1.28339
C         -2.37935       -4.50172       -0.02411
C         -2.26398       -3.60026       -1.06301
C         -2.06681       -2.26025       -0.78850
H         -1.97700       -1.54063       -1.58570
H         -2.05600       -2.37387        2.57170
C         -3.14354        0.89170        0.46587
C         -3.04537        2.26281        0.40567
C         -4.17033        3.01947        0.12921
C         -5.38377        2.39559       -0.08479
C         -5.47597        1.01893       -0.02421
C         -4.34963        0.26500        0.25176
H         -4.40335       -0.81081        0.29519
H         -2.08860        2.73452        0.56677
Pd        -0.02341        0.50110       -0.72854
Cl         1.52450        0.88152       -2.30708
Cl        -1.73130        0.64154       -2.19276
H         -2.11567       -0.11932        3.14721
H         -1.23046        1.32557        2.71182
H          0.10769       -1.42422        2.69320
H          0.01845       -0.47142        4.15018
H          2.16748        0.00468        3.15141
H          1.18138        1.43425        2.91550
H          3.48576        4.53990       -0.93609
H          6.07909        2.31092        1.60449
H          1.02047       -4.41550        0.03966
H          4.95821       -2.97249       -0.71832
H         -2.39998       -4.76738        2.09419
H         -2.32516       -3.93839       -2.08433
H         -4.09757        4.09335        0.07698
H         -6.42190        0.53189       -0.19529
H          5.65481        4.28195        0.19518
H          3.34654       -4.82995       -0.65598
H         -2.53120       -5.54801       -0.23377
H         -6.25998        2.98418       -0.30277
