59
-75.80123257
Cl         1.74338        0.37968        2.31370
P          1.60807       -0.15107       -0.88393
P         -1.55410       -0.12599       -0.77436
C          0.59590        0.11306       -2.40865
H          0.36632        1.17761       -2.49830
H          1.18995       -0.16742       -3.28435
C         -0.66440       -0.69420       -2.28582
H         -0.43776       -1.75828       -2.17963
H         -1.32442       -0.57755       -3.15112
C          2.70079       -1.62351       -1.18807
H          2.58041       -1.82411       -2.26138
C          2.91300        1.14425       -0.64110
H          2.98078        1.30436        0.44169
C         -3.04193       -1.13992       -0.34597
H         -3.09035       -1.12878        0.75045
C         -2.41449        1.46736       -1.14087
H         -1.84987        1.98515       -1.92589
C          4.11998       -1.08430       -0.93469
H          4.42212       -1.31777        0.09335
H          4.84710       -1.60351       -1.57725
C          4.18942        0.45208       -1.14867
H          4.30889        0.67015       -2.21893
H          5.07785        0.87905       -0.65870
C         -4.22642       -0.34623       -0.94711
H         -4.76952       -0.98932       -1.65380
H         -4.95448       -0.11317       -0.15639
C         -3.77974        0.96825       -1.65552
H         -4.54087        1.75162       -1.52988
H         -3.71605        0.79368       -2.74054
C          2.31691       -2.87235       -0.39383
H          2.94598       -3.70991       -0.72604
H          1.29313       -3.15872       -0.66800
C          2.58981        2.46261       -1.33399
H          3.47713        3.11019       -1.30262
H          2.41319        2.27103       -2.40013
C         -2.91987       -2.57647       -0.83565
H         -3.88923       -3.08212       -0.72340
H         -2.72171       -2.56749       -1.91539
C         -2.49190        2.32866        0.11546
H         -3.09479        1.80074        0.86663
H         -1.49074        2.40743        0.56097
C          2.41932       -2.73561        1.11783
H          3.44661       -2.57036        1.44467
H          2.06156       -3.63072        1.63214
H          1.82909       -1.89746        1.48447
C          1.40130        3.18205       -0.71386
H          0.50197        2.56670       -0.74737
H          1.17543        4.12045       -1.22528
H          1.58626        3.41551        0.33639
C         -1.84050       -3.35323       -0.09660
H         -2.07279       -3.43604        0.96690
H         -0.87503       -2.85196       -0.16849
H         -1.71911       -4.36581       -0.48781
C         -3.05352        3.72050       -0.13689
H         -2.45509        4.25760       -0.87526
H         -4.07479        3.67935       -0.51844
H         -3.07081        4.32441        0.77324
Cl        -1.51355        0.01471        2.43828
Pd         0.07615        0.01773        0.85725
