59
-75.79771970
Cl         1.65968        0.68630        2.29477
P          1.64494       -0.10100       -0.80675
P         -1.55705       -0.23234       -0.77890
C          0.63764        0.25130       -2.31505
H          0.35947        1.30845       -2.30454
H          1.26061        0.08172       -3.19895
C         -0.58505       -0.62303       -2.29947
H         -0.30533       -1.67815       -2.28389
H         -1.22352       -0.46396       -3.17407
C          2.52630       -1.71092       -1.08195
H          2.19510       -2.03492       -2.07760
C          3.10987        1.01730       -0.66488
H          3.31749        1.11044        0.40814
C         -2.90498       -1.42500       -0.32609
H         -2.68837       -1.76726        0.69399
C         -2.56564        1.28464       -1.11409
H         -2.22006        1.69993       -2.06907
C          4.01891       -1.32371       -1.13150
H          4.50482       -1.61708       -0.19368
H          4.53607       -1.90017       -1.91312
C          4.21871        0.20130       -1.35192
H          4.20475        0.42419       -2.42806
H          5.20875        0.52565       -0.99594
C         -4.17415       -0.54599       -0.34800
H         -5.03113       -1.14054       -0.69609
H         -4.42959       -0.23647        0.67623
C         -3.99346        0.71766       -1.23188
H         -4.72899        1.48743       -0.95852
H         -4.20765        0.46191       -2.28032
C          2.15524       -2.76604       -0.03939
H          2.56710       -3.73722       -0.34758
H          1.06512       -2.89689       -0.05209
C          2.86967        2.39502       -1.26923
H          3.82084        2.94473       -1.29815
H          2.57451        2.27684       -2.31982
C         -2.97127       -2.62869       -1.26420
H         -3.96166       -3.09752       -1.17974
H         -2.90979       -2.27298       -2.30089
C         -2.39226        2.31669       -0.00481
H         -2.78827        1.89814        0.92980
H         -1.32074        2.46735        0.18140
C          2.60573       -2.45160        1.38067
H          2.19566       -3.16003        2.10429
H          2.28771       -1.45594        1.68629
H          3.69097       -2.48610        1.48435
C          1.82602        3.19974       -0.51018
H          0.86575        2.68397       -0.49168
H          1.66130        4.18398       -0.95435
H          2.12459        3.35188        0.52874
C         -1.89588       -3.66734       -0.98178
H         -1.93702       -4.50269       -1.68451
H         -2.00096       -4.07927        0.02385
H         -0.89720       -3.23736       -1.04232
C         -3.05167        3.65407       -0.30975
H         -2.88926        4.38021        0.49010
H         -2.65550        4.08671       -1.23042
H         -4.12992        3.55155       -0.44034
Cl        -1.62256        0.14392        2.36074
Pd         0.04382        0.08488        0.86018
