111
-148.55041986
P         -2.55627        2.01638       -0.48181
P          0.06513        0.48228        0.44973
C         -1.88435        2.30062        1.17616
C         -0.73701        1.64616        1.56907
C         -2.93499        3.61796       -1.32865
C         -2.08742        3.79013       -2.57022
C         -2.50418        3.18198        2.03849
H         -3.38953        3.70635        1.71800
C         -1.98059        3.39250        3.30243
H         -2.46547        4.07865        3.97750
C         -0.83713        2.72573        3.69849
H         -0.42989        2.88829        4.68283
C         -0.21294        1.85008        2.82815
H          0.68085        1.32293        3.12181
Pd        -1.09395        0.59312       -1.56297
Cl        -2.45937        0.60831       -3.33774
Cl         0.51656       -0.72989       -2.40053
C         -4.45153        3.52974       -1.60604
C         -4.22355        1.21425       -0.53609
H         -2.29762        2.99959       -3.29213
H         -2.28578        4.74545       -3.06197
H         -1.02142        3.74580       -2.33376
H         -4.67426        4.00540       -2.57204
H         -5.00405        4.11499       -0.85647
H         -4.06639        0.18477       -0.88617
C         -4.96383        2.06140       -1.59096
C         -4.89329        1.22235        0.82109
H         -2.71178        4.41237       -0.60339
H         -6.04626        2.02859       -1.39792
H         -4.82471        1.61776       -2.58793
H         -4.26412        0.75107        1.57764
H         -5.08854        2.24485        1.14814
H         -5.85102        0.69689        0.79963
C         -1.23368       -3.80685        1.20850
C          0.07146       -3.55594        0.71221
C          0.45446       -2.24002        0.51292
C         -0.37380       -1.20423        0.85707
C         -1.59234       -1.43900        1.43999
C         -2.03084       -2.73144        1.67901
O         -1.76479       -5.12323        1.17067
C          1.04161       -4.68146        0.32335
H          1.39309       -2.00523        0.04170
H         -2.21168       -0.59344        1.68406
C         -3.37553       -2.93942        2.39216
C          4.54757        1.23247        0.10210
C          3.67529        1.62315       -0.94813
C          2.31670        1.41015       -0.78344
C          1.82983        0.74963        0.31417
C          2.68109        0.25328        1.26769
C          4.05031        0.44619        1.17499
O          5.88951        1.69239        0.11671
C          4.15041        2.23171       -2.27870
H          1.61822        1.75439       -1.52762
H          2.26153       -0.29101        2.09670
C          4.94735       -0.21261        2.23697
C          0.85907       -5.01198       -1.16570
C          2.50333       -4.24107        0.55925
C          0.81133       -5.94057        1.17878
C         -3.58156       -1.85594        3.47448
C         -4.51131       -2.84312        1.36215
C         -3.43076       -4.29866        3.11341
C         -2.45810       -5.42129       -0.03518
H          1.54963       -5.79401       -1.48011
H         -0.15279       -5.35385       -1.37116
H          1.04237       -4.13110       -1.78062
H          2.79927       -3.44073       -0.11706
H          2.63890       -3.89542        1.58344
H          3.18972       -5.07097        0.39280
H          0.88973       -5.70357        2.23928
H         -0.17429       -6.36450        1.00398
H          1.54656       -6.71103        0.94788
H         -3.68967       -0.86376        3.04224
H         -4.48353       -2.05352        4.05325
H         -2.73827       -1.83487        4.16422
H         -4.50297       -1.87247        0.86744
H         -4.40866       -3.60597        0.59315
H         -5.48316       -2.97144        1.83791
H         -2.59755       -4.39847        3.80819
H         -4.35737       -4.40579        3.67684
H         -3.37792       -5.12518        2.40973
H         -2.40440       -4.57559       -0.72209
H         -2.01371       -6.29877       -0.50485
H         -3.50250       -5.64167        0.18465
C          6.03136        2.95081        0.75419
C          3.45311        1.50310       -3.44969
C          3.78190        3.72357       -2.32221
C          5.66599        2.06977       -2.48792
C          6.42881       -0.23717        1.82143
C          4.80045        0.54328        3.56763
C          4.51483       -1.68115        2.43729
H          2.37677        1.66592       -3.44599
H          3.83129        1.85640       -4.40855
H          3.62911        0.42933       -3.39307
H          4.08509        4.17177       -3.26807
H          2.70659        3.86269       -2.21466
H          4.27006        4.27284       -1.51937
H          5.95703        1.02417       -2.39347
H          5.96596        2.41885       -3.47570
H          6.22858        2.64008       -1.75256
H          7.02937       -0.79489        2.53965
H          6.54593       -0.70429        0.84419
H          6.83833        0.76839        1.76156
H          5.41048        0.08482        4.34553
H          5.11119        1.58142        3.46566
H          3.76485        0.53806        3.90628
H          3.50389       -1.75612        2.83404
H          5.17667       -2.18915        3.13828
H          4.55008       -2.22108        1.49175
H          5.41738        3.69609        0.25112
H          5.71606        2.88019        1.79403
H          7.07661        3.25810        0.71463
