111
-148.55657314
P         -2.29682        2.27276        0.67124
P          0.09530        0.19909        0.44924
C         -1.33525        1.85117        2.14394
C         -0.31413        0.93248        2.04575
C         -2.47325        4.10284        0.47705
C         -1.59051        4.61284       -0.64132
C         -1.63223        2.42702        3.36227
H         -2.43176        3.14700        3.42946
C         -0.90581        2.07208        4.48594
H         -1.13650        2.52019        5.43861
C          0.10974        1.14012        4.38853
H          0.67255        0.86014        5.26376
C          0.40469        0.56637        3.16463
H          1.19272       -0.16479        3.07166
Pd        -1.34882        1.14356       -1.10450
Cl        -3.05208        1.94627       -2.32883
Cl        -0.40101       -0.06457       -2.73605
C         -3.98299        4.28047        0.23158
C         -4.07954        1.78571        0.80904
H         -1.85400        4.13778       -1.58822
H         -1.69566        5.69238       -0.77274
H         -0.53742        4.39467       -0.44705
H         -4.16516        4.28245       -0.85198
H         -4.31665        5.26648        0.58920
H         -4.32330        1.27634       -0.13267
C         -4.80894        3.14004        0.89079
C         -4.32481        0.87304        1.99269
H         -2.18373        4.54773        1.43796
H         -4.98797        3.38242        1.94725
H         -5.80712        3.06437        0.43353
H         -3.69973       -0.02063        1.94399
H         -4.08984        1.38037        2.92961
H         -5.36895        0.55568        2.04322
C         -1.19623       -4.16544        0.55910
C         -2.14790       -3.13517        0.34999
C         -1.70233       -1.82418        0.34863
C         -0.36753       -1.52935        0.45124
C          0.56817       -2.52644        0.54296
C          0.18898       -3.85921        0.56253
O         -1.63531       -5.49373        0.80430
C         -3.64295       -3.41784        0.13387
H         -2.39953       -1.00864        0.26584
H          1.60481       -2.24684        0.61073
C          1.27407       -4.94623        0.61897
C          4.39708        1.10613       -0.77703
C          3.63638        0.16852       -1.52047
C          2.33136       -0.07664       -1.12629
C          1.80392        0.50819       -0.00496
C          2.57027        1.33950        0.77103
C          3.88351        1.62641        0.43793
O          5.65033        1.55889       -1.26876
C          4.17997       -0.53615       -2.77327
H          1.68892       -0.70289       -1.71933
H          2.12033        1.78064        1.64254
C          4.71479        2.51779        1.37430
C         -4.28007       -2.32317       -0.75328
C         -3.85060       -4.75976       -0.59154
C         -4.36381       -3.43316        1.48999
C          1.63976       -5.22062        2.08535
C          0.80333       -6.24476       -0.06188
C          2.54208       -4.48574       -0.13316
C         -1.86435       -5.78157        2.17795
H         -5.30126       -2.58979       -1.02432
H         -4.32681       -1.36416       -0.24039
H         -3.71269       -2.19136       -1.67427
H         -3.30811       -4.77256       -1.53627
H         -3.49492       -5.59380        0.00850
H         -4.90556       -4.93196       -0.80329
H         -5.43166       -3.60864        1.36210
H         -3.97076       -4.21416        2.13636
H         -4.23764       -2.48169        2.00546
H          0.77417       -5.56076        2.64937
H          2.41242       -5.98548        2.15896
H          2.01297       -4.31613        2.56512
H          1.60128       -6.98653       -0.08538
H         -0.03937       -6.68659        0.46354
H          0.49173       -6.04876       -1.08729
H          2.29342       -4.18430       -1.15003
H          3.02950       -3.64991        0.36622
H          3.27197       -5.29279       -0.19262
H         -1.18720       -6.56994        2.50590
H         -1.70374       -4.89003        2.78545
H         -2.88730       -6.13361        2.31077
C          5.56189        2.70363       -2.10840
C          3.82397        0.29624       -4.01435
C          5.70361       -0.73982       -2.68662
C          3.55228       -1.93972       -2.92254
C          6.20501        2.13420        1.32636
C          4.53369        3.98909        0.97143
C          4.25363        2.34822        2.84021
H          4.18928       -0.18108       -4.92320
H          2.74383        0.41051       -4.10345
H          4.25794        1.29189       -3.95874
H          6.07332       -1.30037       -3.54487
H          6.23186        0.20965       -2.66297
H          5.96604       -1.29005       -1.78362
H          2.48479       -1.88806       -3.13037
H          4.01256       -2.48397       -3.74683
H          3.69989       -2.52206       -2.01431
H          6.33809        1.08084        1.57070
H          6.62670        2.30308        0.33866
H          6.78442        2.72329        2.03681
H          5.09865        4.64688        1.63142
H          4.87284        4.16400       -0.04669
H          3.48399        4.27696        1.02541
H          4.92287        2.87563        3.51959
H          4.24798        1.29657        3.12567
H          3.25492        2.75235        2.99901
H          4.52779        3.04272       -2.18139
H          6.17957        3.50379       -1.70078
H          5.93398        2.45966       -3.10325
