111
-148.55012401
P         -2.09266        2.34795        1.29569
P          0.01500        0.10242        0.48601
C         -1.13829        1.50494        2.57862
C         -0.24636        0.51673        2.22558
C         -1.95833        4.18491        1.45456
C         -1.12550        4.76011        0.32965
C         -1.31923        1.83264        3.90664
H         -2.01422        2.61313        4.17152
C         -0.61202        1.15509        4.88476
H         -0.75326        1.40811        5.92285
C          0.26846        0.15066        4.53157
H          0.81386       -0.38250        5.29279
C          0.45030       -0.17045        3.19830
H          1.12671       -0.95949        2.90821
Pd        -1.53858        1.34789       -0.71069
Cl        -3.05116        2.73520       -1.62438
Cl        -1.01481        0.21199       -2.57481
C         -3.42849        4.64535        1.46584
C         -3.92241        2.13637        1.49166
H         -1.04648        5.84715        0.40620
H         -0.11480        4.34429        0.33111
H         -1.57259        4.52862       -0.63885
H         -3.71598        4.92840        0.44392
H         -3.53988        5.55992        2.06778
H         -4.31134        1.94121        0.48334
C         -4.37898        3.52455        1.97573
C         -4.26222        0.99165        2.42225
H         -1.48697        4.37589        2.42759
H         -4.39717        3.52903        3.07420
H         -5.41655        3.71663        1.66270
H         -3.84136        0.05093        2.06024
H         -3.85910        1.16697        3.42071
H         -5.34271        0.86442        2.52089
C         -1.08447       -4.26375       -0.22611
C         -1.65942       -3.54982        0.85576
C         -1.27978       -2.23147        1.04816
C         -0.40230       -1.61424        0.19404
C          0.07862       -2.27140       -0.90756
C         -0.28538       -3.57964       -1.17758
O         -1.28141       -5.66621       -0.33329
C         -2.65154       -4.19889        1.83305
H         -1.65815       -1.66660        1.88240
H          0.73932       -1.74187       -1.56986
C          0.18049       -4.22148       -2.49426
C          4.25268        1.09288       -0.90040
C          3.93829        1.14103        0.48165
C          2.65023        0.81652        0.87344
C          1.67562        0.53227       -0.04817
C          1.95053        0.60464       -1.38867
C          3.21856        0.90691       -1.85186
O          5.60156        1.20441       -1.33164
C          4.97187        1.51792        1.55539
H          2.39070        0.78552        1.91578
H          1.14324        0.43036       -2.07641
C          3.46275        0.99881       -3.36636
C         -3.54210       -5.22695        1.11198
C         -1.87258       -4.87874        2.96911
C         -3.59216       -3.13790        2.44779
C          0.26232       -3.15585       -3.61198
C          1.57295       -4.83851       -2.29674
C         -0.81412       -5.29370       -2.97517
C         -0.25667       -6.44159        0.27557
H         -2.95480       -6.05450        0.72134
H         -4.28785       -5.64280        1.78902
H         -4.06380       -4.76286        0.27567
H         -1.21647       -5.65638        2.58561
H         -1.25460       -4.15450        3.49949
H         -2.55096       -5.33591        3.68901
H         -4.37230       -3.61148        3.04335
H         -3.05566       -2.45779        3.10797
H         -4.07710       -2.55182        1.66759
H         -0.67429       -2.60432       -3.68972
H          1.06306       -2.44119       -3.43133
H          0.45984       -3.62035       -4.57771
H          2.29213       -4.07751       -1.99443
H          1.55841       -5.60500       -1.52522
H          1.93204       -5.29470       -3.21892
H         -0.51774       -5.69783       -3.94279
H         -0.87301       -6.12402       -2.27628
H         -1.81334       -4.87118       -3.07554
H         -0.69898       -7.11757        1.00732
H          0.24973       -7.04156       -0.48016
H          0.46777       -5.79346        0.77035
C          6.29812       -0.03404       -1.39017
C          5.67861        0.24690        2.05016
C          6.00321        2.52069        1.00660
C          4.28258        2.19882        2.76039
C          3.90169       -0.37497       -3.89563
C          2.17229        1.41895       -4.10675
C          4.53232        2.05815       -3.68787
H          4.95921       -0.45345        2.47398
H          6.19368       -0.26018        1.23789
H          6.41332        0.48303        2.81953
H          6.69606        2.83658        1.78613
H          6.59062        2.08653        0.20162
H          5.50536        3.40736        0.61552
H          3.66472        3.03428        2.43215
H          3.65312        1.50270        3.31278
H          5.02220        2.58496        3.46144
H          3.14271       -1.12832       -3.68760
H          4.06182       -0.34541       -4.97308
H          4.82726       -0.70093       -3.42795
H          2.37566        1.61157       -5.15980
H          1.41245        0.63985       -4.06635
H          1.75503        2.32826       -3.67505
H          4.66485        2.16732       -4.76395
H          5.49652        1.78922       -3.26332
H          4.24663        3.02754       -3.28092
H          6.68085       -0.18927       -2.39880
H          7.14597       -0.01103       -0.70589
H          5.63514       -0.85725       -1.12094
