111
-148.55560302
P         -2.18780        2.10891        1.49076
P          0.16513        0.17663        0.60051
C         -1.06685        1.42683        2.73476
C         -0.05917        0.57047        2.34726
C         -2.30108        3.95073        1.59373
C         -1.43641        4.61222        0.54171
C         -1.22030        1.75857        4.06540
H         -2.00058        2.44307        4.35646
C         -0.36972        1.21509        5.01239
H         -0.48963        1.47062        6.05257
C          0.63158        0.34553        4.62499
H          1.29344       -0.07907        5.36181
C          0.78865        0.02461        3.28837
H          1.57046       -0.64707        2.97282
Pd        -1.42900        1.40155       -0.56278
Cl        -3.28996        2.19895       -1.52418
Cl        -0.51499        0.66399       -2.47578
C         -3.81067        4.20453        1.43182
C         -3.96735        1.66041        1.75232
H         -1.50312        5.70128        0.59702
H         -0.38678        4.32994        0.65519
H         -1.74998        4.31408       -0.46061
H         -4.03224        4.33736        0.36369
H         -4.09410        5.15310        1.91306
H         -4.30112        1.22219        0.80241
C         -4.65091        3.02206        1.99076
C         -4.14482        0.67931        2.89371
H         -1.96996        4.22705        2.60327
H         -4.79691        3.15966        3.07078
H         -5.66217        3.02220        1.55693
H         -3.85483        1.13154        3.84311
H         -5.18540        0.36030        2.98846
H         -3.52635       -0.21000        2.76035
C         -1.31057       -4.00828       -0.42186
C         -2.18748       -3.06916        0.18087
C         -1.68104       -1.82434        0.51975
C         -0.39686       -1.47317        0.19114
C          0.40146       -2.32385       -0.52871
C         -0.03534       -3.58920       -0.87961
O         -1.68058       -5.37567       -0.51876
C         -3.66610       -3.37363        0.46692
H         -2.28981       -1.10243        1.03572
H          1.37747       -1.98314       -0.82330
C          0.87788       -4.49165       -1.72324
C          4.37798        0.95413       -0.95476
C          4.14971       -0.12590       -0.06428
C          2.85876       -0.34007        0.38951
C          1.83715        0.50843        0.04754
C          2.07912        1.62116       -0.71484
C          3.34530        1.89316       -1.20479
O          5.62350        1.07237       -1.62695
C          5.26702       -1.08176        0.38343
H          2.63088       -1.19302        1.00471
H          1.25248        2.26960       -0.94750
C          3.56314        3.16587       -2.03732
C         -4.52779       -2.11963        0.19757
C         -4.20612       -4.48477       -0.45208
C         -3.82075       -3.78780        1.93776
C          0.05171       -5.44760       -2.60292
C          1.75001       -3.64229       -2.67586
C          1.79779       -5.29580       -0.79258
C         -1.33227       -6.13896        0.62908
H         -4.35093       -1.73820       -0.80777
H         -5.58890       -2.35050        0.28784
H         -4.31257       -1.32192        0.90406
H         -4.04732       -4.22728       -1.49870
H         -3.70921       -5.43288       -0.26354
H         -5.27410       -4.63685       -0.29784
H         -3.48022       -2.99316        2.60112
H         -4.86201       -4.00334        2.17588
H         -3.23265       -4.67700        2.15701
H          0.69659       -6.03945       -3.25198
H         -0.52960       -6.13905       -1.99757
H         -0.64135       -4.88853       -3.23067
H          1.13146       -2.96897       -3.26872
H          2.47997       -3.04504       -2.13233
H          2.30615       -4.27927       -3.36323
H          1.22100       -5.93900       -0.13147
H          2.47823       -5.92568       -1.36505
H          2.39582       -4.62973       -0.17102
H         -2.23510       -6.45871        1.14878
H         -0.77812       -7.02562        0.32058
H         -0.71847       -5.54504        1.30748
C          5.67802        0.37767       -2.86676
C          5.33996       -2.27078       -0.58670
C          6.62580       -0.36029        0.44215
C          4.98425       -1.62211        1.80379
C          2.60376        4.28855       -1.57940
C          4.99582        3.70258       -1.86747
C          3.28306        2.85635       -3.51578
H          4.39876       -2.81930       -0.59424
H          5.53831       -1.93963       -1.60329
H          6.13012       -2.96308       -0.29724
H          7.40387       -1.02020        0.82505
H          6.93830       -0.02100       -0.54216
H          6.56938        0.51133        1.09335
H          5.83310       -2.19575        2.17534
H          4.80243       -0.80406        2.50036
H          4.12034       -2.28490        1.81935
H          2.84428        5.22878       -2.07506
H          1.56734        4.05744       -1.82100
H          2.67890        4.44836       -0.50410
H          5.21579        3.88240       -0.81568
H          5.73136        2.99712       -2.24583
H          5.12996        4.63959       -2.40735
H          2.26165        2.49964       -3.64693
H          3.95244        2.08597       -3.89085
H          3.41284        3.74517       -4.13261
H          6.47229       -0.36790       -2.83445
H          4.72561       -0.11401       -3.06938
H          5.90261        1.07978       -3.66953
