111
-148.55282941
P         -2.24875        2.47632       -0.23838
P         -0.12355        0.24249        0.49081
C         -1.77501        2.21962        1.48831
C         -0.88257        1.21953        1.80410
C         -1.95848        4.22645       -0.75776
C         -0.82568        4.29849       -1.75878
C         -2.31416        3.00527        2.48647
H         -2.99912        3.79663        2.22831
C         -1.97000        2.77187        3.80680
H         -2.39206        3.38268        4.58811
C         -1.09080        1.75409        4.12396
H         -0.82641        1.56878        5.15201
C         -0.54483        0.97547        3.11908
H          0.14429        0.17797        3.34982
Pd        -1.21120        0.82880       -1.48223
Cl        -2.54893        1.41823       -3.18129
Cl        -0.19034       -0.94476       -2.41624
C         -3.32791        4.66610       -1.31046
C         -4.07912        2.35924       -0.50612
H          0.10462        3.91192       -1.33472
H         -1.05517        3.70085       -2.64341
H         -0.64835        5.32486       -2.08892
H         -3.32207        4.54364       -2.40224
H         -3.48519        5.74116       -1.13551
H         -4.21036        1.80152       -1.44271
C         -4.49056        3.82884       -0.70604
C         -4.78238        1.64955        0.63111
H         -1.71252        4.78272        0.15633
H         -4.78265        4.25111        0.26522
H         -5.38997        3.89173       -1.33739
H         -5.85736        1.57608        0.45133
H         -4.39194        0.63887        0.76665
H         -4.64300        2.18301        1.57217
C         -1.10168       -4.18380        0.85247
C          0.24836       -3.78373        0.68130
C          0.52277       -2.43041        0.58383
C         -0.47062       -1.49634        0.71422
C         -1.76047       -1.87232        0.98384
C         -2.10203       -3.20973        1.10512
O         -1.45903       -5.55106        0.71153
C          1.40215       -4.78847        0.54146
H          1.52063       -2.08723        0.37708
H         -2.50499       -1.10076        1.08288
C         -3.54982       -3.57725        1.46488
C          4.33094        1.14997        0.04862
C          3.66708        0.34567       -0.91161
C          2.31054        0.12604       -0.75295
C          1.63109        0.59658        0.33946
C          2.29117        1.29193        1.31931
C          3.64748        1.55535        1.22330
O          5.66601        1.57707       -0.18113
C          4.38296       -0.26450       -2.12702
H          1.75097       -0.40939       -1.49843
H          1.72632        1.64000        2.16493
C          4.34970        2.29440        2.37375
C          1.12438       -6.07244        1.34392
C          1.60030       -5.12444       -0.94457
C          2.71609       -4.18933        1.09319
C         -3.61759       -4.92069        2.21372
C         -4.16127       -2.51144        2.40272
C         -4.38873       -3.64374        0.17965
C         -1.80757       -5.91823       -0.61752
H          0.25438       -6.59973        0.96078
H          1.97158       -6.75608        1.29495
H          0.93786       -5.83747        2.39127
H          2.43104       -5.81608       -1.08196
H          0.70856       -5.58163       -1.36684
H          1.81199       -4.22262       -1.51842
H          3.50661       -4.93929        1.10838
H          3.07303       -3.36261        0.48141
H          2.57865       -3.82711        2.11165
H         -4.63741       -5.14434        2.52590
H         -3.27844       -5.74225        1.58804
H         -2.98820       -4.89643        3.10267
H         -5.14000       -2.82805        2.76251
H         -3.52249       -2.34679        3.27007
H         -4.30094       -1.55869        1.89532
H         -5.42625       -3.89134        0.40242
H         -4.37396       -2.68592       -0.34003
H         -4.00221       -4.39607       -0.50405
H         -2.83552       -6.27940       -0.64115
H         -1.70793       -5.06194       -1.28596
H         -1.15530       -6.72249       -0.95752
C          5.76868        2.80395       -0.89305
C          4.31130        0.71883       -3.30491
C          5.84950       -0.59736       -1.79829
C          3.70703       -1.58907       -2.55056
C          3.65159        1.99904        3.72113
C          5.81187        1.83414        2.51702
C          4.29327        3.80769        2.11586
H          4.79252        1.66286       -3.06099
H          4.80244        0.30831       -4.18674
H          3.27472        0.93261       -3.56467
H          6.41749        0.29907       -1.56299
H          5.90767       -1.26453       -0.93888
H          6.33878       -1.08571       -2.64066
H          4.28284       -2.08462       -3.33177
H          3.63299       -2.27289       -1.70598
H          2.70664       -1.42453       -2.94774
H          4.22256        2.41389        4.55149
H          2.65721        2.44088        3.76606
H          3.55874        0.92535        3.88261
H          6.29063        2.31012        3.37243
H          5.86233        0.75486        2.65707
H          6.39482        2.08329        1.63387
H          3.26043        4.14737        2.04152
H          4.79476        4.06858        1.18713
H          4.77304        4.35959        2.92377
H          4.77678        3.19780       -1.11824
H          6.32051        3.52845       -0.29436
H          6.31590        2.64390       -1.82186
