171
-217.84596739
P         -1.60597        0.41385       -0.30911
P          1.61023       -0.39795       -0.30964
C         -0.86815        1.36976       -1.63802
C          0.86391       -1.35707       -1.63088
C         -0.08466        0.74525       -2.60197
C          0.54876        1.53936       -3.57706
C          0.35177        2.91037       -3.56650
C         -0.44640        3.50745       -2.61357
C         -1.05052        2.73097       -1.64467
C          1.03862       -2.71932       -1.62919
C          0.43278       -3.49812       -2.59515
C         -0.35860       -2.90215       -3.55437
C         -0.54868       -1.53021       -3.57270
C          0.08515       -0.73411       -2.59949
Cl         1.57424        0.32781        2.91266
Cl        -1.60248       -0.46716        2.83685
C         -1.40764       -0.92346       -4.62645
C          1.41851        0.93331       -4.62231
H         -0.59634        4.57464       -2.62152
H         -1.66878        3.18906       -0.88991
H          1.65249       -3.17656       -0.87032
H          0.57744       -4.56605       -2.59695
H          0.83583        3.51252       -4.31687
H         -0.84232       -3.50591       -4.30365
C         -3.88025       -3.25651       -1.64491
C         -2.89476       -3.39427       -0.67606
C         -2.20121       -2.25436       -0.29003
C         -2.47344       -1.04471       -0.87801
C         -3.44118       -0.92641       -1.84551
C         -4.17262       -2.03882       -2.24613
H         -4.45339       -4.12128       -1.92404
H         -1.45417       -2.29515        0.48341
H         -3.62873        0.04488       -2.27084
C         -4.40239        2.88136        2.27737
C         -4.92780        1.85080        1.50821
C         -4.05144        1.12158        0.71525
C         -2.71400        1.42924        0.68373
C         -2.21382        2.45661        1.44484
C         -3.04866        3.19633        2.27194
H         -5.07050        3.44249        2.90306
H         -4.40496        0.29524        0.12525
H         -1.15956        2.67183        1.40547
C          4.39174       -2.88545        2.27278
C          3.03247       -3.17513        2.28569
C          2.20282       -2.43044        1.45760
C          2.71304       -1.41863        0.68264
C          4.05592       -1.13420        0.69788
C          4.92746       -1.87212        1.48808
H          5.05638       -3.45321        2.89617
H          1.14426       -2.62528        1.43133
H          4.41807       -0.31976        0.09679
C          3.89547        3.25254       -1.68251
C          2.90046        3.40549       -0.72569
C          2.20454        2.27140       -0.32703
C          2.48378        1.05209       -0.89173
C          3.45857        0.91946       -1.85021
C          4.19293        2.02573       -2.26234
H          4.47141        4.11281       -1.96958
H          1.44675        2.32621        0.43500
H          3.64850       -0.05785       -2.26046
Pd         0.00336        0.03916        1.33884
C         -2.37279       -5.81028       -1.12979
C         -2.63610       -4.76236       -0.03193
C         -3.86913       -5.17090        0.79272
C         -1.41003       -4.71989        0.89910
H         -2.14358       -6.78231       -0.69339
H         -3.23847       -5.93504       -1.77880
H         -1.52905       -5.51245       -1.75099
H         -3.71396       -6.13538        1.27591
H         -4.07436       -4.43290        1.56804
H         -4.75488       -5.24931        0.16310
H         -1.20423       -5.70587        1.31540
H         -0.52462       -4.39444        0.35401
H         -1.57386       -4.03883        1.73371
C         -6.64854       -2.24097       -2.54357
C         -5.31958       -1.94626       -3.26281
C         -5.10586       -2.97707       -4.38793
C         -5.40482       -0.54361       -3.89564
H         -6.64886       -3.24113       -2.11141
H         -6.81603       -1.52903       -1.73614
H         -7.48964       -2.17343       -3.23332
H         -5.11045       -3.99549       -4.00190
H         -5.89498       -2.90448       -5.13619
H         -4.15284       -2.81469       -4.88904
H         -4.47434       -0.28244       -4.39867
H         -6.20427       -0.50103       -4.63523
H         -5.61484        0.21558       -3.14252
C         -6.78582        1.08705        3.00406
C         -6.42735        1.52844        1.57374
C         -6.80643        0.39433        0.60057
C         -7.23833        2.78187        1.19583
H         -7.84272        0.83250        3.08118
H         -6.20475        0.21126        3.29239
H         -6.57857        1.87727        3.72478
H         -6.28369       -0.52907        0.84950
H         -7.87580        0.18819        0.64350
H         -6.56275        0.66445       -0.42679
H         -8.30783        2.57240        1.20824
H         -7.05251        3.60031        1.89018
H         -6.97310        3.12414        0.19567
C         -2.06743        5.49448        2.20377
C         -2.46022        4.32812        3.12600
C         -1.21595        3.81465        3.87884
C         -3.47313        4.83934        4.16902
H         -1.61730        6.30889        2.77112
H         -1.35147        5.17134        1.45011
H         -2.94158        5.88578        1.68365
H         -1.46652        2.94601        4.48734
H         -0.42256        3.52269        3.19292
H         -0.81345        4.58409        4.53727
H         -3.02220        5.60160        4.80433
H         -4.34263        5.28793        3.68933
H         -3.81260        4.02803        4.81276
C          2.04736       -5.47215        2.26318
C          2.43439       -4.28537        3.16112
C          1.18522       -3.75285        3.89277
C          3.43799       -4.77270        4.22457
H          1.58712       -6.27067        2.84483
H          1.34202       -5.16427        1.49333
H          2.92581       -5.87952        1.76299
H          1.43151       -2.86754        4.47858
H          0.39507       -3.48080        3.19525
H          0.77971       -4.50441        4.56974
H          2.97854       -5.51357        4.87879
H          4.30752       -5.24055        3.76379
H          3.77878       -3.94505        4.84644
C          6.82233       -0.45643        0.54998
C          6.43376       -1.57883        1.53284
C          7.21474       -2.84965        1.14998
C          6.81981       -1.13858        2.95637
H          6.31958        0.47751        0.80073
H          7.89576       -0.26994        0.57953
H          6.56181       -0.72657       -0.47322
H          7.02103       -3.66154        1.84984
H          6.93028       -3.19031        0.15456
H          8.28830       -2.66167        1.14835
H          7.88232       -0.90396        3.01817
H          6.25947       -0.25069        3.24871
H          6.60748       -1.92171        3.68329
C          3.85280        5.20367        0.73091
C          2.63317        4.78422       -0.10796
C          1.39088        4.75953        0.80236
C          2.39091        5.81516       -1.22670
H          3.69197        6.17657        1.19500
H          4.04270        4.47845        1.52202
H          4.74945        5.26908        0.11535
H          0.51390        4.42754        0.24768
H          1.53795        4.09212        1.65101
H          1.18056        5.75274        1.19878
H          2.15311        6.79363       -0.80971
H          3.26891        5.93066       -1.86067
H          1.55937        5.50754       -1.85950
C          5.14859        2.93494       -4.40752
C          5.34833        1.91724       -3.26791
C          5.43384        0.50682       -3.88326
C          6.67182        2.21623       -2.54051
H          4.20041        2.76887       -4.91654
H          5.15208        3.95800       -4.03398
H          5.94509        2.85126       -5.14676
H          5.63588       -0.24403       -3.11970
H          4.50617        0.24264       -4.39001
H          6.23866        0.45290       -4.61625
H          6.67150        3.22153       -2.12042
H          6.82978        1.51359       -1.72310
H          7.51880        2.13766       -3.22185
H         -1.75065        0.07097       -4.33772
H          0.89710        0.87661       -5.57877
H         -2.29082       -1.53592       -4.80729
H         -0.86488       -0.83458       -5.56843
H          1.73175       -0.07454       -4.34664
H          2.31975        1.52848       -4.76836
