105
-153.06697350
Cl         0.02332        1.94346        3.05437
Pd        -0.48645        1.28589        0.95902
P         -1.12499        0.48611       -1.15946
N         -0.74480       -1.03730       -1.95775
C          0.18122       -2.01863       -1.60571
C          0.32626       -2.48533       -0.27471
C          1.29113       -3.47465        0.00756
C          1.41945       -3.98635        1.42292
C          2.24736       -5.27286        1.56708
C          3.51361       -5.20877        0.70847
C          3.15203       -5.03117       -0.77346
C          2.08809       -3.99076       -1.01823
C          1.89073       -3.55198       -2.32137
C          0.95404       -2.59560       -2.61257
H          0.82443       -2.25462       -3.62492
H          2.49545       -3.96897       -3.10887
H          4.04547       -4.76663       -1.35362
H          4.13237       -4.36405        1.03660
H          2.50055       -5.45906        2.62036
H          1.86740       -3.19479        2.03451
C         -0.66495       -2.11756        0.76482
C         -0.23194       -1.52259        1.98156
C         -1.15748       -1.38041        3.01982
C         -2.45840       -1.78348        2.86673
C         -2.90323       -2.35608        1.68132
C         -4.34078       -2.81322        1.61072
C         -4.81264       -3.20742        0.20182
C         -3.73535       -4.01458       -0.52691
C         -2.44065       -3.19883       -0.65464
C         -2.00554       -2.52655        0.62510
H         -1.62757       -3.84118       -1.01522
H         -4.09239       -4.34087       -1.51402
H         -5.03778       -2.30329       -0.37696
H         -4.98278       -2.02281        2.01932
H         -3.15622       -1.65921        3.67750
H         -0.83908       -0.91898        3.93810
N          1.06529       -1.01529        2.14949
P          1.60512        0.19948        0.99162
C          2.61680       -0.36240       -0.36541
C          2.40480        0.18057       -1.60782
C          3.22350       -0.18158       -2.66163
C          4.26917       -1.07460       -2.46682
C          4.47481       -1.59869       -1.19692
C          3.65357       -1.23577       -0.14444
H          3.81282       -1.62891        0.84708
H          5.27914       -2.29639       -1.03815
C          5.12394       -1.50023       -3.60893
H          3.05005        0.22372       -3.64370
H          1.59273        0.87370       -1.74662
C          2.53298        1.52713        1.76725
C          3.26023        1.29265        2.90924
C          3.97475        2.32466        3.49034
C          3.97284        3.59256        2.92404
C          3.23339        3.80705        1.76868
C          2.52028        2.77413        1.18781
H          1.94776        2.93660        0.28758
H          3.21569        4.78945        1.32861
C          4.71468        4.71217        3.56715
H          4.53695        2.15130        4.39200
H          3.27073        0.30507        3.34102
H          1.22843       -0.57850        3.04743
H         -1.01774       -0.95385       -2.92888
C         -0.61622        1.84805       -2.22075
C         -0.84486        3.14422       -1.82520
C         -0.43507        4.19573       -2.62217
C          0.20160        3.95696       -3.83210
C          0.42523        2.64272       -4.21872
C          0.01165        1.59398       -3.41805
H          0.19642        0.57616       -3.71761
H          0.93004        2.44574       -5.14911
C          0.67333        5.08810       -4.67799
H         -0.60627        5.21090       -2.30707
H         -1.34852        3.32697       -0.89078
C         -2.92025        0.52946       -1.10172
C         -3.61037        0.27148        0.05722
C         -4.99206        0.31354        0.06186
C         -5.69404        0.59648       -1.10112
C         -4.98101        0.83142       -2.26870
C         -3.59762        0.80299       -2.26636
H         -3.04101        0.99423       -3.17054
H         -5.51534        1.03979       -3.17982
C         -7.18294        0.60370       -1.10329
H         -5.53511        0.12828        0.97264
H         -3.06334        0.05236        0.95982
Cl        -2.29830        2.62569        0.99023
H          2.80676       -5.98647       -1.18652
H          1.64116       -6.13232        1.25434
H          4.13320       -6.10445        0.85755
H          0.41378       -4.14074        1.83388
H         -3.53083       -4.93603        0.03257
H         -2.56990       -2.42727       -1.42228
H         -4.46409       -3.66574        2.28937
H         -5.75657       -3.76878        0.24750
H          4.70101       -2.37626       -4.10266
H          5.21352       -0.70583       -4.35118
H          6.13026       -1.75564       -3.27409
H          5.58682        4.34642        4.11087
H          5.06515        5.43018        2.82438
H          4.07574        5.24346        4.27381
H          1.69037        5.37551       -4.40779
H          0.66933        4.81795       -5.73492
H          0.03308        5.96317       -4.55803
H         -7.57281        1.27053       -1.87355
H         -7.57467       -0.39653       -1.29343
H         -7.57548        0.94226       -0.14342
