105
-153.07114849
Cl         3.19252        1.29445       -1.27609
Pd         0.96554        1.03276       -1.09327
P         -1.40984        0.94262       -0.85043
N         -1.32313       -0.44096       -1.94699
C         -0.39306       -1.44942       -1.66280
C         -0.29738       -2.06023       -0.38285
C          0.64533       -3.08099       -0.16417
C          0.61784       -3.83343        1.14325
C          1.22923       -5.23789        1.04374
C          2.61228       -5.17451        0.39024
C          2.54482       -4.55622       -1.01717
C          1.52987       -3.44905       -1.17931
C          1.44320       -2.81839       -2.41477
C          0.49795       -1.85618       -2.66041
H          0.44933       -1.37920       -3.62346
H          2.12589       -3.10966       -3.19502
H          3.53001       -4.17022       -1.30789
H          3.27371       -4.57136        1.02185
H          1.28395       -5.71384        2.03311
H          1.14964       -3.24772        1.89968
C         -1.34162       -1.82787        0.64407
C         -1.07517       -1.08928        1.82348
C         -1.99971       -1.14126        2.86623
C         -3.16295       -1.85679        2.75212
C         -3.46456       -2.55507        1.59072
C         -4.77208       -3.30476        1.52762
C         -4.84716       -4.33280        0.38828
C         -4.28677       -3.74767       -0.91127
C         -2.82180       -3.31952       -0.73351
C         -2.55418       -2.54007        0.53167
H         -2.17327       -4.20353       -0.74187
H         -4.88679       -2.87720       -1.20472
H         -5.87902       -4.68346        0.24446
H         -5.58542       -2.57711        1.42260
H         -3.86912       -1.86755        3.56512
H         -1.79803       -0.58315        3.76403
N          0.03041       -0.26862        1.99547
P          1.42272        0.17148        1.02011
C          2.73213       -1.02906        1.27432
C          3.63896       -1.32677        0.28538
C          4.68367       -2.19392        0.54389
C          4.83875       -2.75763        1.80287
C          3.91269       -2.44827        2.78982
C          2.86825       -1.57921        2.52712
H          2.15848       -1.32181        3.29725
H          4.01673       -2.88819        3.76688
C          5.95525       -3.70402        2.07829
H          5.39359       -2.42961       -0.23042
H          3.54597       -0.85375       -0.67715
C          2.01677        1.71674        1.71760
C          1.09323        2.70047        1.97971
C          1.51072        3.92269        2.47463
C          2.85722        4.16301        2.71366
C          3.77531        3.15986        2.43171
C          3.35526        1.93948        1.93575
H          4.06719        1.16445        1.70320
H          4.82340        3.34377        2.59540
C          3.31290        5.48829        3.21704
H          0.79209        4.69922        2.67395
H          0.04999        2.50720        1.79009
H          0.20511        0.08338        2.92888
H         -1.25116       -0.03976       -2.87337
C         -1.60424        2.48069       -1.75930
C         -2.36734        2.50933       -2.90122
C         -2.52280        3.69785       -3.59158
C         -1.91383        4.86167       -3.14122
C         -1.16483        4.81479       -1.97309
C         -1.01140        3.62640       -1.28296
H         -0.42672        3.58699       -0.37741
H         -0.70018        5.71475       -1.60804
C         -2.09492        6.14533       -3.87384
H         -3.11881        3.72774       -4.48766
H         -2.84182        1.60506       -3.24707
C         -2.88768        0.85314        0.15913
C         -3.96943        0.17691       -0.35054
C         -5.14936        0.12504        0.36929
C         -5.25136        0.76254        1.59829
C         -4.14990        1.45233        2.08845
C         -2.97254        1.50699        1.36480
H         -2.11995        2.04899        1.73871
H         -4.21873        1.94279        3.04437
C         -6.50275        0.66692        2.39918
H         -5.99543       -0.41655       -0.01768
H         -3.87880       -0.31560       -1.30577
Cl         0.71474        1.61776       -3.25285
H          2.31378       -5.34020       -1.74839
H          0.57179       -5.87841        0.44252
H          3.07219       -6.17219        0.35654
H         -0.41643       -3.90053        1.50260
H         -4.38691       -4.46597       -1.73722
H         -2.50552       -2.71566       -1.59273
H         -4.94412       -3.79673        2.49355
H         -4.26894       -5.22407        0.66301
H          5.65858       -4.73088        1.86053
H          6.82852       -3.47006        1.46781
H          6.26145       -3.65727        3.12427
H          3.52329        6.16529        2.38799
H          2.55292        5.95300        3.84676
H          4.22205        5.39219        3.81225
H         -2.96224        6.68833       -3.49590
H         -1.22033        6.78786       -3.76305
H         -2.24417        5.97210       -4.94047
H         -6.46445       -0.18862        3.07499
H         -6.65500        1.56448        3.00021
H         -7.37499        0.54799        1.75490
