87
-129.17960948
P         -1.74138       -0.38342        0.19312
P          1.50423        0.42387       -0.10964
C         -1.50932        0.92494       -1.03847
C          1.23644       -0.63185       -1.54022
C         -0.64146        0.88085       -2.12740
C         -0.50029        2.03094       -2.92788
C         -1.24155        3.16164       -2.63151
C         -2.09819        3.18723       -1.55324
C         -2.22167        2.06697       -0.75412
C          2.07429       -1.68985       -1.79433
C          1.87775       -2.47082       -2.91630
C          0.83804       -2.18477       -3.77711
C         -0.02066       -1.12462       -3.53611
C          0.19122       -0.31924       -2.39936
Cl         1.33564        1.72966        2.80794
Cl        -1.30187       -0.01308        3.45054
H         -2.65999        4.07846       -1.32658
H         -2.87035        2.08199        0.10941
H          2.88955       -1.89837       -1.12195
H          2.53313       -3.30249       -3.11661
H         -1.13017        4.03559       -3.25077
H          0.68122       -2.79334       -4.65147
C         -0.34360       -4.62972       -0.64320
C         -1.12446       -3.98310       -1.59085
C         -1.54736       -2.68442       -1.32959
C         -1.19057       -2.05803       -0.15892
C         -0.45455       -2.72408        0.79399
C         -0.01635       -4.01069        0.54666
H         -0.00431       -5.63214       -0.84174
C         -1.48558       -4.66700       -2.86246
H         -2.15033       -2.15813       -2.04976
H         -0.26276       -2.24889        1.74306
H          0.56648       -4.53431        1.28672
C         -6.20265       -0.57931        1.07343
C         -5.74342       -0.63960       -0.22768
C         -4.38565       -0.58092       -0.48359
C         -3.50049       -0.45879        0.56241
C         -3.95752       -0.39946        1.85683
C         -5.31603       -0.46590        2.13511
H         -7.25960       -0.61835        1.27521
H         -6.44167       -0.72969       -1.04362
H         -4.01138       -0.61986       -1.49463
H         -3.24965       -0.29523        2.65949
C         -5.80771       -0.37274        3.53686
C          4.90132       -1.27857        2.40511
C          4.99401        0.00575        1.90602
C          3.96941        0.52168        1.13517
C          2.86147       -0.24818        0.87019
C          2.76653       -1.52601        1.36900
C          3.78907       -2.06520        2.13860
H          5.69498       -1.67974        3.01205
H          5.86112        0.60819        2.12186
H          4.02339        1.52615        0.74813
H          1.89270       -2.11570        1.15513
C          3.66501       -3.44176        2.69043
C          2.61770        4.55545       -1.64011
C          1.74049        4.44073       -0.57979
C          1.40603        3.19116       -0.09442
C          1.94743        2.06884       -0.67524
C          2.82778        2.17874       -1.72657
C          3.17083        3.42805       -2.23150
H          2.88328        5.52827       -2.01744
H          1.31902        5.32383       -0.12832
H          0.73498        3.08681        0.74202
H          3.24199        1.28636       -2.16682
C          4.13159        3.55235       -3.36111
Pd        -0.06890        0.42737        1.63465
C          0.43864        2.06832       -4.08410
C         -1.14183       -0.85820       -4.47879
H          1.16790        1.25919       -4.03523
H         -0.10187        1.98057       -5.02726
H          0.99377        3.00723       -4.10253
H         -1.87317       -0.17475       -4.04562
H         -0.77397       -0.41632       -5.40558
H         -1.66483       -1.78112       -4.73309
H         -0.59706       -4.85850       -3.46567
H         -1.97150       -5.62356       -2.66502
H         -2.17080       -4.06264       -3.45834
H         -6.72846       -0.94242        3.67018
H         -5.07036       -0.76558        4.23845
H         -6.00989        0.66438        3.80787
H          3.26606       -4.12759        1.94153
H          4.63229       -3.82908        3.01334
H          2.99333       -3.45408        3.54995
H          5.14915        3.68517       -2.99109
H          4.11610        2.66158       -3.99094
H          3.88764        4.40805       -3.99240
