105
-153.06830413
Cl         0.44199        3.23099        2.35686
Pd        -0.15838        1.79011        0.74042
P         -0.76714        0.48185       -1.14369
N          0.38998       -0.76730       -1.58591
C          0.47026       -2.15725       -1.40168
C         -0.05369       -2.84058       -0.27144
C          0.25095       -4.20506       -0.08147
C         -0.12705       -4.87453        1.21927
C          0.72937       -6.10933        1.53291
C          0.74630       -7.05926        0.33158
C          1.32705       -6.36794       -0.91409
C          0.97753       -4.90392       -1.04911
C          1.45023       -4.22214       -2.16362
C          1.22537       -2.87976       -2.32388
H          1.63182       -2.35868       -3.17351
H          2.02778       -4.76057       -2.89608
H          2.41996       -6.45877       -0.90476
H          1.30595       -7.97520        0.56796
H          1.75466       -5.79162        1.76027
H         -0.05237       -4.14476        2.03532
C         -0.72554       -2.09055        0.81716
C          0.05649       -1.19449        1.58684
C         -0.53119       -0.54110        2.66911
C         -1.84767       -0.75878        2.98432
C         -2.63420       -1.63542        2.24404
C         -4.06697       -1.84526        2.68169
C         -4.89972       -2.80111        1.80378
C         -4.02978       -3.89242        1.16995
C         -2.91786       -3.24452        0.33623
C         -2.07183       -2.30657        1.15545
H         -2.29820       -3.99954       -0.15954
H         -4.63265       -4.58173        0.56207
H         -5.39081       -2.23039        1.00624
H         -4.55713       -0.86514        2.73882
H         -2.29013       -0.24220        3.81914
H          0.06008        0.15289        3.23941
N          1.37490       -0.94117        1.20657
P          1.89818        0.73192        1.08165
C          2.72706        1.01278       -0.48218
C          2.42473        2.14017       -1.20926
C          2.91964        2.28217       -2.49170
C          3.70967        1.29145       -3.05730
C          4.02848        0.17486       -2.29645
C          3.53857        0.03587       -1.01039
H          3.76046       -0.84526       -0.42906
H          4.65519       -0.59070       -2.72132
C          4.23469        1.44307       -4.44230
H          2.67666        3.15745       -3.06978
H          1.78804        2.89892       -0.78257
C          2.87239        1.26362        2.48052
C          2.92794        0.45760        3.59172
C          3.66248        0.85729        4.69392
C          4.34909        2.06444        4.68301
C          4.27356        2.86647        3.55158
C          3.53899        2.46454        2.45045
H          3.47359        3.08585        1.57125
H          4.78946        3.81135        3.54022
C          5.11572        2.51175        5.87873
H          3.70419        0.23401        5.57074
H          2.39970       -0.48246        3.58692
H          1.65900       -1.37545        0.33573
H          1.24757       -0.26886       -1.79432
C         -0.63433        1.71076       -2.44903
C         -1.08885        2.99577       -2.27516
C         -0.95051        3.92100       -3.29166
C         -0.35524        3.56487       -4.49431
C          0.07472        2.25586       -4.66366
C         -0.06444        1.33355       -3.64213
H          0.27635        0.31881       -3.76832
H          0.52283        1.96410       -5.59808
C         -0.21920        4.55585       -5.59725
H         -1.30522        4.92849       -3.15654
H         -1.55290        3.26768       -1.34256
C         -2.41322       -0.20553       -1.33211
C         -2.58341       -1.10977       -2.35462
C         -3.84174       -1.61890       -2.62728
C         -4.93837       -1.22855       -1.87041
C         -4.75075       -0.29986       -0.85554
C         -3.49420        0.21037       -0.59277
H         -3.35729        0.95848        0.16767
H         -5.59809        0.03084       -0.27953
C         -6.29354       -1.76956       -2.16597
H         -3.97735       -2.32648       -3.42718
H         -1.72685       -1.41190       -2.93666
Cl        -2.22556        2.66679        0.68787
H          1.00021       -6.88914       -1.82290
H          0.36958       -6.62173        2.43641
H         -0.27889       -7.38934        0.12092
H         -1.18080       -5.16989        1.18244
H         -3.58080       -4.50507        1.96148
H         -3.37024       -2.67355       -0.47842
H         -4.05194       -2.22077        3.71201
H         -5.71867       -3.24815        2.38444
H          3.54773        2.02181       -5.06157
H          5.19766        1.95543       -4.43790
H          4.37132        0.47185       -4.91996
H          5.96696        3.13067        5.59173
H          4.48314        3.09804        6.54654
H          5.50091        1.66009        6.44118
H          0.65942        4.34560       -6.20880
H         -1.09505        4.53470       -6.24711
H         -0.11457        5.56872       -5.20582
H         -6.93361       -1.73536       -1.28318
H         -6.77735       -1.19226       -2.95499
H         -6.23808       -2.80872       -2.49363
