72
-98.09388116
Fe         0.05744        2.81239        0.19179
P          1.94370       -0.07495       -0.04932
P         -1.76925       -0.08460       -0.09087
C          1.53192        1.54887        0.70575
C          0.63983        1.77251        1.83201
C          0.62614        3.19553        2.12372
C          1.52429        3.85289        1.19160
C          2.09213        2.83542        0.32304
C         -1.38992        1.65186       -0.55331
C         -1.96936        2.85991        0.01426
C         -1.39047        4.00285       -0.67153
C         -0.47123        3.50524       -1.67833
C         -0.47647        2.05434       -1.60985
C          3.34229       -0.79964        0.92147
C          4.54423       -0.06382        0.30690
C          2.86092        0.18683       -1.64590
C          4.34994        0.18091       -1.21684
C         -2.84509       -0.15416        1.42333
C         -4.14111       -0.82073        0.92615
C         -2.95007       -0.79682       -1.32755
C         -4.30570       -0.69996       -0.61132
H          0.10156        1.00308        2.38346
H          0.06030        3.68120        2.92217
H          1.75176        4.92096        1.16325
H          2.82537        3.00097       -0.46908
H         -2.71728        2.90140        0.80851
H          0.10626        1.38239       -2.23890
Cl         1.67622       -3.06031       -0.33258
Cl        -1.53336       -3.04260        0.24536
Pd         0.08823       -1.49063       -0.01264
H          3.38899       -1.86791        0.68163
C          3.18819       -0.60518        2.42554
H          2.56049        1.17113       -2.02396
C          2.55618       -0.89209       -2.68547
H          5.47582       -0.61688        0.50454
H          4.66035        0.89983        0.82402
H          4.84142        1.11638       -1.52267
H          4.87018       -0.60991       -1.77467
H         -1.62598        5.05223       -0.48040
H          0.11223        4.11295       -2.37367
H          4.13659       -0.86105        2.91818
H          3.31892       -0.84892       -3.47562
H         -3.03462        0.88609        1.71073
C         -2.18834       -0.89940        2.58035
H         -2.66795       -1.84643       -1.47134
C         -2.88595       -0.05456       -2.65737
H         -5.01424       -0.40080        1.44777
H         -4.11765       -1.88370        1.20222
H         -4.99756       -1.46614       -0.99338
H         -4.76809        0.26609       -0.85695
H         -2.02538       -1.94310        2.28423
H         -1.84576       -0.03550       -3.00915
C          2.05586       -1.42713        3.02061
H          1.96608       -1.28361        4.09971
H          1.09735       -1.16100        2.57541
H          2.20536       -2.49328        2.84031
C          1.17588       -0.79169       -3.31459
H          0.99463       -1.59727       -4.02985
H          0.38852       -0.84728       -2.56373
H          1.05284        0.15100       -3.85080
C         -3.00188       -0.83951        3.86413
H         -3.15220        0.19246        4.18692
H         -3.99057       -1.28149        3.72876
H         -2.51419       -1.37273        4.68340
C         -3.78517       -0.66265       -3.72293
H         -4.83202       -0.64819       -3.41460
H         -3.71582       -0.12676       -4.67232
H         -3.52012       -1.70439       -3.91319
H          3.03532        0.46217        2.63149
H          2.68898       -1.87420       -2.21392
H         -1.18506       -0.49555        2.75470
H         -3.15118        0.99760       -2.48869
