115
-277.93887683
P         -1.50324        0.49199        0.11094
P          2.16872        0.03985        0.01864
C         -2.40653        2.03520       -0.08906
C         -3.72319        2.08464        0.31953
H         -4.24228        1.17201        0.56823
C         -4.31977        3.31160        0.53938
H         -5.30115        3.36898        0.98214
C         -3.60315        4.48250        0.33566
C         -2.33300        4.41416       -0.21250
H         -1.78470        5.33273       -0.35414
C         -1.72808        3.19084       -0.41141
H         -0.70605        3.14496       -0.74963
C         -2.57791       -0.80549       -0.53929
C         -3.04907       -1.78826        0.30094
H         -2.75615       -1.79551        1.33766
C         -3.91092       -2.75118       -0.18106
H         -4.29790       -3.52104        0.46776
C         -4.30988       -2.73265       -1.50443
C         -3.83506       -1.74168       -2.33985
H         -4.16973       -1.72617       -3.36528
C         -2.96817       -0.78437       -1.85736
H         -2.60316       -0.00754       -2.50849
C         -1.20694        0.22500        1.90114
C         -0.48666       -0.93269        2.11646
H         -0.14342       -1.49865        1.27206
C         -0.03903       -1.29783        3.38406
C         -0.53654       -0.58864        4.47012
H         -0.24349       -0.87280        5.46698
C         -1.26458        0.56700        4.27111
H         -1.53395        1.17188        5.12046
C         -1.50692        1.06029        2.98848
C          1.90677        0.72486        1.69170
C          1.19751        1.91325        1.66975
H          0.82540        2.28735        0.73083
C          0.81503        2.55222        2.84956
C          1.36866        2.09335        4.03928
H          1.12160        2.59137        4.96196
C          2.08674        0.91505        4.06914
H          2.39645        0.50896        5.01712
C          2.26511        0.14955        2.91759
C         -1.74344        2.54953        2.86916
H         -2.41579        2.87416        3.67222
H         -2.31348        2.75789        1.96833
C         -0.42543        3.40679        2.88423
H         -0.41165        4.11338        2.04785
H         -0.39660        4.04235        3.77645
C          1.21110       -2.12776        3.51800
H          1.10175       -3.04328        2.92684
H          1.29479       -2.47610        4.55320
C          2.50276       -1.33223        3.09827
H          3.29964       -1.48188        3.83496
H          2.90685       -1.73318        2.17191
C          2.14717       -1.75930       -0.12960
C          3.29173       -2.46745        0.16817
C          0.96550       -2.42289       -0.38334
C          3.21776       -3.83181        0.36611
C          0.89227       -3.78448       -0.18777
C          2.00362       -4.48665        0.24898
C          3.67630        0.71846       -0.69284
C          4.39911        0.03258       -1.64128
C          4.09511        1.95620       -0.26382
C          5.55245        0.58635       -2.15971
H          4.05284       -0.92792       -1.98735
C          5.24773        2.50876       -0.78122
H          3.52505        2.48480        0.48296
C          5.98193        1.82790       -1.73349
H          6.13980        0.06299       -2.89765
H          5.59895        3.47108       -0.44487
Pd         0.34964        0.63890       -1.33301
Cl        -1.19082        1.47802       -2.74796
Cl         1.88121        0.57758       -2.97787
H         -0.05062       -4.30080       -0.27035
H          0.08037       -1.87651       -0.66369
H          4.07182       -4.38907        0.71829
H          4.21989       -1.94343        0.33489
C         -5.53155        5.90690        1.16919
C         -3.98862        5.76710        1.02700
C         -3.25188        5.74700        2.40517
F         -5.81990        7.12927        1.64244
F         -6.06862        5.74428       -0.04905
F         -5.99623        4.96179        1.99791
F         -3.53989        6.81625        0.33366
F         -3.57731        4.62454        3.06025
F         -1.93494        5.73647        2.15641
F         -3.58695        6.83191        3.11603
C         -4.97442       -5.16047       -1.54945
C         -5.32278       -3.72017       -2.02607
C         -6.73710       -3.26815       -1.56242
F         -5.77207       -6.03795       -2.17823
F         -3.69135       -5.39101       -1.86761
F         -5.13695       -5.24547       -0.22146
F         -5.31316       -3.72310       -3.36194
F         -6.96982       -2.06268       -2.10344
F         -7.65206       -4.15250       -1.98722
F         -6.75337       -3.17379       -0.22460
C          7.12062        3.89240       -2.61590
C          7.28341        2.38726       -2.24933
C          8.38065        2.15526       -1.17110
F          6.06213        3.99820       -3.43313
F          6.90603        4.60606       -1.50191
F          8.23030        4.31689       -3.23970
F          7.65508        1.73845       -3.35630
F          8.49687        0.83023       -0.99656
F          9.54321        2.67180       -1.59634
F          7.99812        2.73035       -0.02152
C          1.34601       -5.52511        2.36668
C          1.84028       -5.82749        0.91770
C          0.86607       -6.74546        0.12535
F          0.19823       -4.83652        2.30522
F          1.18422       -6.67159        3.04081
F          2.27597       -4.75943        2.95382
F          3.01848       -6.45020        1.00277
F         -0.36707       -6.22018        0.14543
F          1.31095       -6.81312       -1.13851
F          0.86533       -7.96700        0.68173
