111
-148.55188004
P         -1.39076        2.66388        1.23387
P         -0.31215       -0.23059        0.52949
C         -0.89430        1.53276        2.56474
C         -0.49113        0.24985        2.25901
C         -0.20062        4.07506        1.12249
C          0.55052        4.03938       -0.19168
C         -0.88514        1.95986        3.87724
H         -1.15900        2.97629        4.10774
C         -0.49999        1.09031        4.88303
H         -0.49717        1.42277        5.90827
C         -0.11275       -0.19964        4.57447
H          0.19224       -0.87463        5.35713
C         -0.09785       -0.61801        3.25602
H          0.23510       -1.60994        2.99340
Pd        -1.66130        1.27942       -0.59245
Cl        -3.26745        2.58573       -1.44045
Cl        -1.63905       -0.20757       -2.28515
C         -1.09622        5.31673        1.30760
C         -2.95368        3.58874        1.59659
H          1.23435        4.88633       -0.28464
H          1.13547        3.12304       -0.29270
H         -0.14372        4.07748       -1.03369
H         -1.31627        5.74136        0.31856
H         -0.55168        6.10428        1.84998
H         -3.47761        3.67507        0.63585
C         -2.43203        4.97151        2.02616
C         -3.83315        2.88592        2.60849
H          0.48452        3.96197        1.97267
H         -2.27892        4.97289        3.11400
H         -3.19293        5.74373        1.83500
H         -4.76137        3.43608        2.77861
H         -4.09295        1.87908        2.27368
H         -3.33014        2.79055        3.57094
C         -0.88590       -4.68704       -0.21664
C         -1.86531       -3.96051        0.50783
C         -1.64501       -2.61240        0.74146
C         -0.54064       -1.97957        0.23378
C          0.35496       -2.65432       -0.55368
C          0.19115       -4.00051       -0.83268
O         -0.96698       -6.10259       -0.30325
C         -3.14284       -4.61724        1.05423
H         -2.33584       -2.03315        1.32998
H          1.19112       -2.10915       -0.95459
C          1.17668       -4.69240       -1.78774
C          3.65206        1.41025       -1.00826
C          3.37871        1.41050        0.38359
C          2.18588        0.85837        0.81861
C          1.26127        0.38286       -0.07374
C          1.47404        0.48263       -1.42329
C          2.64258        1.02522       -1.92688
O          4.94262        1.77262       -1.47768
C          4.35666        1.99333        1.41552
H          1.95713        0.80076        1.86807
H          0.68828        0.15520       -2.08084
C          2.79126        1.19827       -3.44655
C         -4.29522       -3.58997        1.13039
C         -3.61895       -5.75517        0.13283
C         -2.87281       -5.15649        2.46705
C          2.34659       -5.27647       -0.98198
C          0.47644       -5.80345       -2.59089
C          1.74211       -3.68221       -2.81260
C         -0.28750       -6.78947        0.74005
H         -5.23313       -4.07936        1.39193
H         -4.10932       -2.83073        1.88855
H         -4.43375       -3.09170        0.17122
H         -2.89363       -6.56396        0.09324
H         -4.56146       -6.17513        0.48319
H         -3.76682       -5.38931       -0.88267
H         -2.56733       -4.35119        3.13477
H         -3.76535       -5.62152        2.88485
H         -2.07864       -5.89910        2.46057
H          2.86424       -4.49174       -0.43074
H          2.00081       -6.01382       -0.26181
H          3.06903       -5.76083       -1.63847
H         -0.38023       -5.40293       -3.13192
H          1.15609       -6.25195       -3.31501
H          0.11805       -6.59728       -1.94011
H          2.33122       -4.19178       -3.57474
H          0.93639       -3.14675       -3.31432
H          2.39682       -2.95285       -2.33789
H          0.19507       -6.07934        1.41273
H         -0.99727       -7.39712        1.30101
H          0.46292       -7.45345        0.31131
C          5.83873        0.67695       -1.61179
C          3.59865        2.50302        2.66268
C          5.34386        0.90177        1.85449
C          5.11961        3.19637        0.83195
C          3.66372        2.42162       -3.78139
C          3.40755       -0.07388       -4.04713
C          1.41227        1.43658       -4.10424
H          3.15272        1.68528        3.22698
H          4.27445        3.02623        3.33877
H          2.80791        3.19654        2.37884
H          4.81345        0.05640        2.29225
H          5.92045        0.53002        1.01096
H          6.04315        1.28367        2.59787
H          4.42390        3.95641        0.47767
H          5.76661        3.65132        1.58153
H          5.74537        2.89974       -0.00632
H          3.25550        3.32093       -3.32125
H          4.68101        2.29454       -3.41972
H          3.71459        2.58420       -4.85768
H          2.77016       -0.93659       -3.85651
H          3.52932        0.02288       -5.12564
H          4.38367       -0.28153       -3.61524
H          0.78259        0.54951       -4.05550
H          1.52463        1.69046       -5.15793
H          0.88636        2.25705       -3.61661
H          6.72615        0.85593       -1.00487
H          5.35901       -0.24884       -1.29152
H          6.15085        0.58399       -2.65179
