171
-217.83838222
P         -1.69475        0.63679        0.18025
P          1.52436       -0.21297       -0.20210
C         -0.86718        1.81845       -0.90604
C          0.73033       -0.82631       -1.69906
C         -0.15947        1.46574       -2.04914
C          0.51219        2.47365       -2.76679
C          0.43716        3.78492       -2.32827
C         -0.26704        4.11546       -1.19067
C         -0.91159        3.12388       -0.47680
C          0.90345       -2.13323       -2.08235
C          0.29577       -2.60803       -3.22767
C         -0.49146       -1.76459       -3.98370
C         -0.68831       -0.44455       -3.61123
C         -0.04496        0.04226       -2.45708
Cl         1.92099        1.00846        2.83308
Cl        -1.12911        0.15314        3.44855
C         -1.55436        0.43995       -4.43843
C          1.32167        2.16349       -3.97720
H         -0.30876        5.13864       -0.85470
H         -1.44915        3.36397        0.42875
H          1.52183       -2.78332       -1.48782
H          0.43355       -3.63427       -3.52676
H          0.95223        4.55015       -2.88428
H         -0.95760       -2.12922       -4.88303
C         -2.85508       -3.47964       -1.32382
C         -3.45705       -2.35754       -1.87909
C         -3.05144       -1.10970       -1.42128
C         -2.09386       -1.00247       -0.44288
C         -1.52932       -2.12603        0.11480
C         -1.89795       -3.39238       -0.31970
H         -3.16047       -4.44687       -1.67577
H         -3.49151       -0.20922       -1.81269
H         -0.81043       -2.01963        0.90776
C         -5.62081        2.54338        1.40257
C         -4.86947        1.90186        2.37984
C         -3.66325        1.32989        1.99943
C         -3.23610        1.39882        0.69853
C         -3.99172        2.03505       -0.25535
C         -5.20334        2.62557        0.07916
H         -6.55356        2.99177        1.68867
H         -3.03274        0.83793        2.71662
H         -3.62566        2.08188       -1.26783
C          3.92701       -3.63852        1.61238
C          2.93843       -3.05242        2.39186
C          2.20572       -2.01359        1.83753
C          2.45970       -1.56416        0.56312
C          3.45936       -2.14408       -0.18025
C          4.20676       -3.20075        0.32486
H          4.49945       -4.45442        2.01177
H          1.43928       -1.54731        2.42801
H          3.64850       -1.77227       -1.17098
C          4.42572        3.06102       -1.37778
C          3.58480        3.27418       -0.29303
C          2.71692        2.25169        0.06510
C          2.68136        1.08197       -0.65040
C          3.50008        0.89952       -1.73824
C          4.39891        1.88813       -2.12201
H          5.13189        3.82683       -1.63989
H          2.06831        2.35546        0.91563
H          3.41674       -0.01318       -2.30142
Pd         0.13369        0.37120        1.61312
C         -3.98645       -3.19281       -4.18595
C         -4.56673       -2.52478       -2.92766
C         -5.18023       -1.16833       -3.32594
C         -5.68900       -3.40511       -2.34495
H         -4.75934       -3.34317       -4.93951
H         -3.20658       -2.57289       -4.62492
H         -3.55149       -4.16417       -3.95323
H         -5.61173       -0.66810       -2.45933
H         -4.43274       -0.51076       -3.76764
H         -5.97468       -1.30269       -4.05988
H         -5.32788       -4.40430       -2.10494
H         -6.08773       -2.96434       -1.43140
H         -6.50950       -3.51085       -3.05449
C         -1.82917       -5.93946       -0.26325
C         -1.31410       -4.63375        0.37238
C         -1.73148       -4.61367        1.85413
C          0.22086       -4.62133        0.26421
H         -1.39315       -6.80743        0.23127
H         -2.91228       -6.02030       -0.17378
H         -1.56301       -5.99236       -1.31887
H         -2.81721       -4.62346        1.94745
H         -1.33933       -5.48163        2.38370
H         -1.36448       -3.71864        2.35437
H          0.64054       -3.71727        0.70046
H          0.65714       -5.47450        0.78326
H          0.53221       -4.67178       -0.77824
C         -5.53852        3.28263        4.36369
C         -5.37856        1.84825        3.82754
C         -4.39941        1.09090        4.74652
C         -6.73722        1.12466        3.86244
H         -6.26291        3.84663        3.77730
H         -5.87995        3.27642        5.39867
H         -4.58863        3.81550        4.32464
H         -4.26231        0.06292        4.41183
H         -3.42500        1.57831        4.76916
H         -4.77490        1.05758        5.76907
H         -7.48276        1.65194        3.26847
H         -6.64496        0.11454        3.46377
H         -7.11444        1.05204        4.88237
C         -5.17233        4.50932       -1.57168
C         -6.01174        3.34752       -1.00800
C         -7.33095        3.91888       -0.45407
C         -6.34581        2.35531       -2.13753
H         -5.72402        5.05398       -2.33767
H         -4.90787        5.21166       -0.78143
H         -4.24738        4.14815       -2.02011
H         -7.89412        4.42243       -1.23976
H         -7.96246        3.12719       -0.05127
H         -7.14286        4.64737        0.33440
H         -6.91338        1.50921       -1.75067
H         -6.94133        2.83436       -2.91447
H         -5.44112        1.96794       -2.60458
C          2.94630       -2.28333        4.77351
C          2.65789       -3.47510        3.84117
C          3.54104       -4.66204        4.27022
C          1.18234       -3.89079        3.98046
H          3.98225       -1.95997        4.67528
H          2.30853       -1.43250        4.53608
H          2.77189       -2.55076        5.81540
H          4.59848       -4.40331        4.21946
H          3.32301       -4.95456        5.29730
H          3.36547       -5.53025        3.63515
H          0.51411       -3.06359        3.74499
H          0.95131       -4.71612        3.30801
H          0.96256       -4.21381        4.99779
C          4.89565       -5.36073       -0.73665
C          5.29924       -3.89398       -0.50135
C          6.63517       -3.83561        0.26250
C          5.49486       -3.21319       -1.87072
H          3.94271       -5.41744       -1.26277
H          5.64379       -5.88070       -1.33474
H          4.78908       -5.89691        0.20575
H          6.57190       -4.35832        1.21600
H          7.43542       -4.29664       -0.31622
H          6.91700       -2.80242        0.46478
H          6.28191       -3.70767       -2.43988
H          4.58283       -3.25625       -2.46593
H          5.78162       -2.16873       -1.74986
C          5.03768        4.74566        1.12094
C          3.64544        4.59734        0.48208
C          2.58431        4.64849        1.59965
C          3.38743        5.76775       -0.48479
H          5.82037        4.76180        0.36333
H          5.10780        5.66992        1.69416
H          5.24125        3.91359        1.79473
H          1.57994        4.53675        1.19174
H          2.74811        3.85989        2.33371
H          2.62287        5.60143        2.12694
H          3.40444        6.72089        0.04341
H          4.14163        5.80881       -1.26963
H          2.41340        5.66436       -0.96187
C          6.78938        1.42474       -2.67203
C          5.39486        1.67497       -3.27191
C          5.44079        2.92002       -4.17968
C          5.00376        0.46308       -4.14156
H          6.77900        0.54647       -2.02663
H          7.52918        1.26082       -3.45536
H          7.11468        2.27503       -2.07314
H          6.11212        2.75925       -5.02315
H          4.45315        3.14816       -4.57821
H          5.79778        3.79686       -3.64165
H          5.68509        0.35687       -4.98561
H          5.04676       -0.46425       -3.57152
H          3.99605        0.57632       -4.54030
H         -2.00999        1.22436       -3.83192
H          0.82719        2.52334       -4.88056
H         -2.36082       -0.12563       -4.90688
H         -0.97925        0.91700       -5.23284
H          1.48863        1.09130       -4.08571
H          2.29872        2.64345       -3.91718
