171
-217.84434783
P         -1.59558        0.37474       -0.41166
P          1.63425       -0.40743       -0.40171
C         -0.89553        1.31894       -1.76426
C          0.93434       -1.37036       -1.74584
C         -0.09630        0.69780       -2.71606
C          0.49994        1.48813       -3.71672
C          0.24349        2.84913       -3.74883
C         -0.57643        3.44025       -2.81109
C         -1.13777        2.66988       -1.81168
C          1.17990       -2.72177       -1.76586
C          0.59849       -3.51965       -2.73151
C         -0.25139       -2.95682       -3.65961
C         -0.51079       -1.59662       -3.65853
C          0.11261       -0.77654       -2.69788
Cl         1.60118        0.44654        2.76697
Cl        -1.52129       -0.36659        2.84136
C         -1.45255       -1.03737       -4.66740
C          1.37014        0.87418       -4.75635
H         -0.77670        4.49833       -2.85543
H         -1.77076        3.12324       -1.06578
H          1.82805       -3.15621       -1.02182
H          0.80040       -4.57813       -2.75201
H          0.69169        3.44771       -4.52384
H         -0.72722       -3.57757       -4.40008
C         -3.95540       -3.28159       -1.63630
C         -2.95500       -3.41651       -0.68098
C         -2.22188       -2.28593       -0.34684
C         -2.49067       -1.07999       -0.94396
C         -3.48195       -0.96119       -1.88667
C         -4.23923       -2.06844       -2.25218
H         -4.54628       -4.13805       -1.90078
H         -1.44407       -2.34088        0.39569
H         -3.66548        0.00635       -2.32224
C         -4.26313        2.90856        2.24483
C         -4.84049        1.91236        1.46700
C         -4.00592        1.16115        0.64965
C         -2.65803        1.41591        0.60341
C         -2.10693        2.41401        1.36834
C         -2.89885        3.17362        2.21860
H         -4.89761        3.47939        2.89633
H         -4.39962        0.35719        0.05419
H         -1.04406        2.58242        1.32580
C          4.25302       -2.86337        2.37181
C          2.90542       -3.18157        2.26728
C          2.13259       -2.44471        1.37898
C          2.69042       -1.42410        0.64748
C          4.02269       -1.11650        0.77334
C          4.83628       -1.83918        1.63713
H          4.86250       -3.41692        3.06223
H          1.07984       -2.64261        1.27282
H          4.41704       -0.29102        0.20825
C          3.90349        3.33538       -1.54730
C          2.87209        3.42474       -0.61992
C          2.16689        2.26655       -0.32245
C          2.49748        1.07451       -0.91722
C          3.52473        1.00038       -1.82580
C          4.25507        2.13579       -2.15689
H          4.45355        4.22273       -1.79359
H          1.35866        2.28929        0.38817
H          3.76717        0.04691       -2.26474
Pd         0.01134       -0.03218        1.23599
C         -3.64757       -5.84871       -0.37707
C         -2.64314       -4.74832        0.01535
C         -2.71038       -4.55372        1.54253
C         -1.23177       -5.20540       -0.39014
H         -4.66598       -5.55931       -0.11830
H         -3.60706       -6.05536       -1.44634
H         -3.42468       -6.77899        0.14535
H         -3.69862       -4.20584        1.84233
H         -2.50834       -5.48877        2.06461
H         -1.98244       -3.81947        1.88386
H         -0.95634       -6.12909        0.11843
H         -1.18194       -5.38332       -1.46391
H         -0.48888       -4.44827       -0.14365
C         -6.72295       -2.24369       -2.49866
C         -5.40520       -1.97156       -3.24696
C         -5.22528       -3.01395       -4.36718
C         -5.48771       -0.57356       -3.89080
H         -6.86527       -1.52258       -1.69437
H         -7.57691       -2.17156       -3.17196
H         -6.72707       -3.24000       -2.05776
H         -4.28304       -2.86285       -4.89200
H         -5.22829       -4.02882       -3.97192
H         -6.03112       -2.94200       -5.09749
H         -5.67249        0.19478       -3.14034
H         -4.56555       -0.32779       -4.41654
H         -6.30258       -0.52818       -4.61319
C         -7.11899        2.93306        1.20707
C         -6.34971        1.64506        1.55429
C         -6.70042        1.19764        2.98473
C         -6.78756        0.53886        0.57345
H         -8.19531        2.76419        1.23682
H         -6.88922        3.73464        1.90793
H         -6.85899        3.27810        0.20649
H         -7.76455        0.98089        3.07655
H         -6.14728        0.29731        3.25167
H         -6.45242        1.96974        3.71216
H         -7.86307        0.37243        0.63233
H         -6.55119        0.81233       -0.45475
H         -6.29601       -0.40663        0.80216
C         -3.26317        4.93392        4.02244
C         -2.23586        4.22424        3.12026
C         -1.54085        5.28106        2.24435
C         -1.19411        3.52827        4.01793
H         -2.77445        5.67287        4.65735
H         -4.01364        5.45483        3.42813
H         -3.76953        4.22251        4.67455
H         -0.76789        4.82835        1.62680
H         -2.25749        5.76652        1.58219
H         -1.07010        6.04967        2.85709
H         -0.71556        4.24206        4.68798
H         -1.66528        2.75584        4.62520
H         -0.41341        3.05227        3.42603
C          0.79335       -4.44020        2.92183
C          2.30792       -4.28214        3.15504
C          2.53157       -3.91552        4.63400
C          2.99542       -5.62202        2.83759
H          0.37999       -5.21571        3.56645
H          0.26478       -3.51247        3.14065
H          0.58665       -4.72450        1.89132
H          3.59261       -3.84674        4.87042
H          2.07474       -2.95273        4.86266
H          2.09123       -4.66383        5.29267
H          2.58037       -6.42681        3.44411
H          2.85915       -5.88480        1.78863
H          4.06587       -5.57383        3.03416
C          6.78870       -0.40040        0.87131
C          6.31979       -1.50166        1.84117
C          7.17384       -2.75926        1.59334
C          6.52706       -1.00646        3.28373
H          6.24079        0.52772        1.03323
H          7.84794       -0.18522        1.01142
H          6.64780       -0.71177       -0.16307
H          6.92770       -3.55350        2.29687
H          7.01160       -3.14164        0.58573
H          8.23518       -2.53696        1.70297
H          7.56918       -0.74072        3.46013
H          5.91517       -0.12588        3.47868
H          6.24939       -1.77231        4.00711
C          3.54414        5.83973       -0.17219
C          2.48807        4.74325        0.06732
C          2.36520        4.51991        1.58828
C          1.14143        5.22286       -0.49666
H          3.28498        6.75011        0.36828
H          4.52669        5.51702        0.17187
H          3.61419        6.09724       -1.22869
H          3.29823        4.13225        1.99649
H          2.13373        5.45288        2.10184
H          1.57605        3.80923        1.82791
H          0.81984        6.14647       -0.01578
H          1.21876        5.40815       -1.56767
H          0.36774        4.47214       -0.34330
C          6.14506        3.37909       -3.33188
C          5.43701        2.02457       -3.13315
C          4.93205        1.53729       -4.50183
C          6.46195        1.02055       -2.57507
H          6.53910        3.75813       -2.38906
H          6.98265        3.27929       -4.02219
H          5.46366        4.12135       -3.74726
H          4.44033        0.56883       -4.42011
H          4.22043        2.24736       -4.92133
H          5.75654        1.43360       -5.20706
H          6.82070        1.34296       -1.59797
H          6.02447        0.02908       -2.46485
H          7.32287        0.93220       -3.23750
H         -1.03048       -1.09637       -5.67162
H          1.95033        0.04725       -4.34436
H         -1.69152        0.00654       -4.46072
H         -2.38968       -1.59397       -4.66627
H          2.07003        1.60418       -5.16326
H          0.77585        0.48935       -5.58570
