111
-148.55346775
P         -2.54393        2.02907        1.03452
P          0.16688        0.48486        0.46698
C         -1.42213        1.62640        2.40599
C         -0.22238        1.00035        2.14693
C         -3.49604        3.57135        1.42312
C         -3.39647        4.59055        0.31011
C         -1.76738        1.93181        3.70760
H         -2.71463        2.40292        3.91197
C         -0.90436        1.61688        4.74316
H         -1.17464        1.85561        5.75884
C          0.30041        0.99489        4.47780
H          0.97094        0.74714        5.28414
C          0.64040        0.68112        3.17441
H          1.56863        0.17937        2.95003
Pd        -1.28935        1.67238       -0.88298
Cl        -2.94191        2.63101       -2.05243
Cl         0.02201        1.24073       -2.65400
C         -4.92622        3.04236        1.65954
C         -3.93187        0.81708        0.85861
H         -3.84571        4.20355       -0.60526
H         -3.91854        5.51594        0.56460
H         -2.35569        4.83756        0.08846
H         -5.65517        3.81006        1.36141
H         -5.09258        2.87881        2.73445
H         -3.81400        0.33897       -0.12375
C         -5.18529        1.71529        0.89210
C         -3.88390       -0.22003        1.95927
H         -3.06680        3.98255        2.34652
H         -6.02148        1.16247        1.34452
H         -5.50412        1.94720       -0.13483
H         -3.97350        0.25320        2.93887
H         -4.69580       -0.94506        1.86457
H         -2.93910       -0.76729        1.94371
C         -1.26632       -3.78536       -0.21474
C         -1.05669       -3.32111        1.10927
C         -0.61147       -2.02206        1.28649
C         -0.43748       -1.18341        0.21743
C         -0.72665       -1.59890       -1.05443
C         -1.18974       -2.87858       -1.30267
O         -1.51310       -5.16356       -0.45324
C         -1.26326       -4.21637        2.34091
H         -0.38113       -1.64850        2.26846
H         -0.57024       -0.90143       -1.85876
C         -1.57665       -3.26094       -2.73949
C          4.60036        0.52785       -0.55951
C          4.02357       -0.60600        0.07203
C          2.66848       -0.57624        0.35548
C          1.91696        0.54364        0.11131
C          2.49493        1.68521       -0.37749
C          3.84459        1.72401       -0.68882
O          5.89562        0.43863       -1.13104
C          4.80872       -1.86837        0.46638
H          2.17631       -1.44587        0.75805
H          1.87068        2.54814       -0.53701
C          4.43414        3.06391       -1.16062
C         -2.40770       -5.21967        2.10967
C          0.04373       -4.96309        2.64822
C         -1.64884       -3.37218        3.57713
C         -2.69022       -4.32360       -2.75176
C         -2.12278       -2.02917       -3.49882
C         -0.33507       -3.78280       -3.47819
C         -0.33830       -5.92795       -0.69464
H         -2.17341       -5.90977        1.30293
H         -2.59697       -5.81153        3.00484
H         -3.32750       -4.69817        1.84684
H          0.34358       -5.59266        1.81402
H          0.85351       -4.25926        2.83982
H         -0.06668       -5.59850        3.52657
H         -1.90455       -4.01530        4.41892
H         -0.82950       -2.73272        3.90213
H         -2.51281       -2.74368        3.36445
H         -3.00749       -4.54709       -3.77001
H         -2.35661       -5.25411       -2.29963
H         -3.55900       -3.97467       -2.19454
H         -2.52061       -2.31873       -4.47103
H         -2.92543       -1.55191       -2.93720
H         -1.34591       -1.28813       -3.68029
H          0.44584       -3.02302       -3.50218
H          0.07498       -4.66260       -2.98796
H         -0.57654       -4.05148       -4.50623
H         -0.38824       -6.37394       -1.68776
H          0.54831       -5.29648       -0.62375
H         -0.27050       -6.73328        0.03663
C          5.87224       -0.01218       -2.47533
C          6.33058       -1.64495        0.43743
C          4.43915       -2.27107        1.91162
C          4.43755       -3.01859       -0.48481
C          5.97212        3.07626       -1.11777
C          3.95626        3.35342       -2.59341
C          3.94936        4.19599       -0.22807
H          6.86317       -2.51839        0.81298
H          6.68259       -1.45519       -0.57369
H          6.60482       -0.78860        1.05253
H          5.03809       -3.11869        2.24376
H          4.61714       -1.44402        2.59839
H          3.39313       -2.56092        1.99714
H          4.69476       -2.77679       -1.51421
H          4.96353       -3.93350       -0.21331
H          3.36787       -3.22372       -0.44968
H          6.39245        2.37141       -1.83109
H          6.36409        4.06356       -1.36101
H          6.33110        2.80223       -0.12636
H          4.29657        2.58500       -3.28465
H          2.86822        3.38365       -2.64232
H          4.33544        4.31274       -2.94447
H          4.41483        5.14458       -0.49454
H          4.20437        3.97589        0.80819
H          2.87152        4.33672       -0.28775
H          5.42781       -1.00451       -2.52956
H          5.28321        0.66849       -3.08765
H          6.89185       -0.05220       -2.85914
