111
-148.55289105
P         -2.18048        2.49503        0.80138
P         -0.16572        0.04748        0.56552
C         -1.40116        1.82258        2.28885
C         -0.52519        0.76489        2.18266
C         -2.00794        4.33738        0.74277
C         -1.01940        4.76280       -0.32143
C         -1.66057        2.38502        3.52195
H         -2.34684        3.21326        3.59489
C         -1.03521        1.88528        4.65119
H         -1.23766        2.32212        5.61545
C         -0.14523        0.83412        4.54161
H          0.34975        0.45130        5.41890
C          0.11518        0.27642        3.30258
H          0.82507       -0.52936        3.19835
Pd        -1.28635        1.35882       -0.99381
Cl        -2.69066        2.55034       -2.27532
Cl        -0.13699        0.30441       -2.61037
C         -3.45218        4.81561        0.50219
C         -4.02386        2.34062        0.80483
H         -1.34353        4.42600       -1.30756
H         -0.91755        5.84979       -0.36092
H         -0.03082        4.33582       -0.13871
H         -3.59981        4.95884       -0.57707
H         -3.60927        5.80600        0.95569
H         -4.29850        2.00609       -0.20456
C         -4.49332        3.78915        1.03241
C         -4.49687        1.34755        1.84501
H         -1.66224        4.64462        1.73843
H         -4.64910        3.94650        2.10852
H         -5.47685        3.95035        0.56541
H         -5.58520        1.25232        1.84011
H         -4.06812        0.35755        1.67129
H         -4.19799        1.66132        2.84650
C         -1.05717       -4.41421        0.24049
C         -1.19159       -3.77176        1.49805
C         -0.91704       -2.41653        1.57668
C         -0.59428       -1.69239        0.45812
C         -0.58470       -2.28956       -0.77511
C         -0.84477       -3.63953       -0.92759
O         -1.09633       -5.83159        0.15842
C         -1.59028       -4.53100        2.77333
H         -0.94511       -1.90846        2.52324
H         -0.36126       -1.67405       -1.62806
C         -0.85653       -4.24003       -2.34198
C          4.10160        0.98318       -0.69608
C          3.62186       -0.34668       -0.81470
C          2.32280       -0.61183       -0.41747
C          1.54027        0.36547        0.13737
C          2.03126        1.62719        0.34880
C          3.32567        1.95823       -0.01716
O          5.33632        1.34969       -1.29435
C          4.45824       -1.48544       -1.41824
H          1.89443       -1.58759       -0.56039
H          1.37794        2.35754        0.79516
C          3.84838        3.36971        0.29115
C         -0.32606       -5.06384        3.46438
C         -2.33268       -3.59672        3.75595
C         -2.54688       -5.69304        2.44949
C         -1.81233       -5.44363       -2.42789
C         -1.35237       -3.19781       -3.37082
C          0.56931       -4.66528       -2.72476
C          0.17659       -6.45274        0.28673
H         -0.57722       -5.59550        4.38184
H          0.21750       -5.74855        2.81784
H          0.34652       -4.24574        3.72128
H         -3.16807       -3.10037        3.26275
H         -2.72953       -4.16020        4.60013
H         -1.67219       -2.83329        4.16449
H         -2.88106       -6.19091        3.35940
H         -3.42625       -5.32962        1.91884
H         -2.06515       -6.44054        1.82399
H         -1.48362       -6.25857       -1.78805
H         -2.81651       -5.15868       -2.11583
H         -1.86939       -5.82704       -3.44632
H         -2.30881       -2.77528       -3.06438
H         -0.64219       -2.38174       -3.49452
H         -1.48668       -3.65491       -4.35083
H          0.59186       -5.10233       -3.72267
H          1.24103       -3.80740       -2.71812
H          0.96329       -5.39977       -2.02619
H          0.95004       -5.70368        0.46145
H          0.15677       -7.15605        1.11915
H          0.40766       -7.00760       -0.62235
C          5.21255        1.80787       -2.63504
C          4.19996       -1.55106       -2.93140
C          5.95902       -1.28399       -1.14195
C          4.06466       -2.84275       -0.79088
C          3.50554        4.30573       -0.87774
C          3.19158        3.92387        1.57644
C          5.36847        3.35789        0.53416
H          3.14256       -1.71981       -3.13424
H          4.48458       -0.62218       -3.41999
H          4.76611       -2.36114       -3.39032
H          6.54264       -2.12444       -1.51682
H          6.33431       -0.38376       -1.62175
H          6.14315       -1.19329       -0.07199
H          4.73645       -3.63281       -1.12571
H          4.11759       -2.79669        0.29651
H          3.05632       -3.14206       -1.07181
H          2.42912        4.33681       -1.04401
H          3.84603        5.32132       -0.67760
H          3.97221        3.97090       -1.80092
H          3.65244        4.86646        1.87088
H          2.12934        4.11827        1.43665
H          3.30576        3.22288        2.40291
H          5.62353        2.66400        1.33444
H          5.72820        4.34734        0.81531
H          5.91060        3.05211       -0.35714
H          5.61352        2.81819       -2.71467
H          5.78609        1.16068       -3.29830
H          4.16568        1.80595       -2.94160
