111
-148.54828956
P         -2.05914        2.56516        0.18691
P         -0.27510       -0.03965        0.51356
C         -1.66881        1.94577        1.84155
C         -0.90757        0.80567        1.98134
C         -1.57284        4.34285        0.03267
C         -0.70127        4.55574       -1.18658
C         -2.06841        2.65153        2.95825
H         -2.63629        3.55972        2.83868
C         -1.71175        2.20646        4.21930
H         -2.02596        2.75527        5.09205
C         -0.93680        1.07150        4.35827
H         -0.64216        0.73475        5.33859
C         -0.52221        0.37774        3.23559
H          0.13019       -0.47635        3.32857
Pd        -1.04412        1.16109       -1.32721
Cl        -2.19289        2.13150       -2.99097
Cl         0.23804       -0.12069       -2.65666
C         -2.93270        5.06728       -0.03992
C         -3.86830        2.68227       -0.19160
H         -0.39030        5.59887       -1.28150
H          0.19748        3.93576       -1.14901
H         -1.24328        4.28888       -2.09567
H         -2.82847        5.98469       -0.63762
H         -3.23391        5.40041        0.96414
H         -4.04843        1.99643       -1.03104
C         -4.04032        4.15093       -0.63234
C         -4.72066        2.28939        0.99594
H         -1.02697        4.60444        0.94952
H         -5.03787        4.50849       -0.33849
H         -4.01447        4.21535       -1.73011
H         -4.47223        1.28540        1.34801
H         -4.56814        2.97875        1.82738
H         -5.78460        2.30759        0.74816
C         -1.17990       -4.52121        0.37464
C         -0.58192       -3.87415       -0.73539
C         -0.36116       -2.51058       -0.65520
C         -0.62772       -1.80378        0.48814
C         -1.12378       -2.44601        1.59378
C         -1.37488       -3.80812        1.58449
O         -1.61587       -5.86861        0.26449
C         -0.20070       -4.61546       -2.02685
H         -0.00097       -1.96605       -1.50903
H         -1.33631       -1.86318        2.47062
C         -1.87432       -4.48666        2.87056
C          4.08170        1.18073        0.00697
C          3.70014       -0.14614       -0.32674
C          2.37487       -0.50950       -0.15848
C          1.46314        0.36522        0.36983
C          1.84857        1.61145        0.79339
C          3.16393        2.03061        0.68086
O          5.34145        1.68442       -0.40700
C          4.66664       -1.20316       -0.88604
H          2.03490       -1.48195       -0.46647
H          1.10240        2.26430        1.21502
C          3.54636        3.37282        1.32799
C          0.20652       -6.07085       -1.73373
C         -1.38794       -4.58063       -3.00084
C          1.01293       -3.94023       -2.70616
C         -3.41005       -4.46383        2.89588
C         -1.36328       -5.93588        2.96615
C         -1.35121       -3.74306        4.12099
C         -2.95213       -6.01025       -0.20149
H         -0.62336       -6.64158       -1.32507
H          0.53791       -6.57536       -2.64100
H          1.02123       -6.10269       -1.01104
H         -1.65741       -3.55251       -3.24160
H         -1.14479       -5.09259       -3.93149
H         -2.26447       -5.06036       -2.57199
H          0.76612       -2.94979       -3.08514
H          1.84286       -3.84453       -2.00726
H          1.35823       -4.52953       -3.55523
H         -3.78072       -3.43980        2.85648
H         -3.82676       -4.99933        2.04640
H         -3.79236       -4.92663        3.80536
H         -1.75787       -6.54999        2.16054
H         -0.27583       -5.96392        2.90569
H         -1.66281       -6.39586        3.90753
H         -0.26846       -3.62750        4.07882
H         -1.79908       -2.75538        4.22034
H         -1.59327       -4.29545        5.02869
H         -3.40423       -5.03114       -0.36447
H         -2.95748       -6.57277       -1.13489
H         -3.53768       -6.56411        0.53219
C          5.28730        2.31422       -1.67618
C          6.14175       -0.81257       -0.69027
C          4.45306       -2.54147       -0.14467
C          4.38253       -1.40465       -2.38406
C          2.97582        3.42452        2.76300
C          5.06974        3.55496        1.44165
C          2.94970        4.52960        0.50996
H          6.39566        0.07161       -1.27009
H          6.34589       -0.59489        0.35748
H          6.80629       -1.61600       -1.00719
H          5.17272       -3.28884       -0.47784
H          4.57852       -2.40950        0.92959
H          3.45920       -2.94929       -0.31923
H          4.54955       -0.48547       -2.94224
H          5.02840       -2.17528       -2.80393
H          3.34851       -1.70608       -2.54739
H          1.88711        3.40599        2.76702
H          3.32824        2.57490        3.34716
H          3.28735        4.33585        3.27272
H          5.52004        2.70935        1.96035
H          5.53255        3.62867        0.46045
H          5.31707        4.46256        1.99179
H          1.86302        4.46437        0.48120
H          3.31226        4.51542       -0.51614
H          3.21397        5.49217        0.94707
H          6.27952        2.68235       -1.93791
H          4.95569        1.60329       -2.43131
H          4.58830        3.14861       -1.65027
