105
-153.06405831
Cl        -0.04071        1.87455        3.13298
Pd        -0.45814        1.29537        0.99824
P         -1.08072        0.52765       -1.14000
N         -0.63226       -0.94982       -1.98830
C          0.22757       -1.98741       -1.63362
C          0.31687       -2.49083       -0.31238
C          1.23728       -3.52144       -0.02915
C          1.31636       -4.06073        1.37979
C          2.10217       -5.37367        1.52183
C          3.38694       -5.33654        0.68954
C          3.06039       -5.12797       -0.79642
C          2.03953       -4.04652       -1.04602
C          1.89052       -3.57425       -2.34368
C          1.00008       -2.57466       -2.63460
H          0.91177       -2.20420       -3.64105
H          2.49905       -3.99630       -3.12558
H          3.97366       -4.88856       -1.35628
H          4.02385       -4.51516        1.04146
H          2.32824       -5.58190        2.57716
H          1.77243       -3.29290        2.01534
C         -0.67134       -2.10179        0.72385
C         -0.21757       -1.52894        1.94409
C         -1.12320       -1.40501        3.00160
C         -2.42374       -1.81485        2.86796
C         -2.88849       -2.37143        1.68256
C         -4.32187       -2.84450        1.63991
C         -4.65476       -3.75427        0.44719
C         -4.00145       -3.23787       -0.83703
C         -2.47521       -3.15988       -0.68105
C         -2.01672       -2.50287        0.59853
H         -2.04414       -4.16684       -0.72872
H         -4.39469       -2.24059       -1.06964
H         -5.74259       -3.84682        0.31872
H         -4.97923       -1.96839        1.63088
H         -3.10593       -1.70782        3.69436
H         -0.78858       -0.95788        3.92117
N          1.08618       -1.03528        2.09951
P          1.61609        0.19190        0.94885
C          2.63602       -0.36443       -0.40285
C          2.47186        0.22586       -1.63097
C          3.29268       -0.14203       -2.68132
C          4.28408       -1.09763       -2.49937
C          4.45377       -1.65582       -1.23873
C          3.63027       -1.28768       -0.18992
H          3.75419       -1.71564        0.79217
H          5.23160       -2.38394       -1.08452
C          5.17183       -1.49241       -3.62727
H          3.16413        0.30899       -3.65029
H          1.69557        0.96082       -1.76142
C          2.52728        1.52161        1.74174
C          3.26389        1.27705        2.87552
C          3.96568        2.30866        3.47258
C          3.94162        3.58681        2.93051
C          3.19308        3.81165        1.78301
C          2.49295        2.77907        1.18611
H          1.91412        2.94998        0.29155
H          3.15828        4.80173        1.36155
C          4.67033        4.70483        3.59119
H          4.53558        2.12679        4.36771
H          3.29268        0.28166        3.28816
H          1.26924       -0.61740        3.00261
H         -0.89551       -0.84860       -2.96058
C         -0.60287        1.92884       -2.16885
C         -0.88016        3.21078       -1.75835
C         -0.49661        4.28815       -2.53330
C          0.16409        4.09085       -3.73749
C          0.43897        2.79130       -4.13983
C          0.05079        1.71685       -3.36081
H          0.27506        0.71158       -3.67489
H          0.96290        2.62597       -5.06579
C          0.60557        5.25128       -4.55974
H         -0.70723        5.29175       -2.20520
H         -1.39956        3.36358       -0.82773
C         -2.87679        0.51386       -1.10466
C         -3.53637        0.71781       -2.29371
C         -4.91964        0.70442       -2.32664
C         -5.65103        0.49938       -1.16493
C         -4.96694        0.28818        0.02362
C         -3.58472        0.28490        0.05005
H         -3.05216        0.11583        0.97202
H         -5.52576        0.13505        0.93071
C         -7.13912        0.46295       -1.19709
H         -5.43924        0.85732       -3.25705
H         -2.96558        0.88776       -3.19347
Cl        -2.28117        2.62318        1.01712
H          2.68877       -6.06485       -1.22835
H          1.47685       -6.20999        1.18493
H          3.97632       -6.25245        0.83819
H          0.29692       -4.19171        1.76414
H         -4.27538       -3.86822       -1.69488
H         -2.05045       -2.61786       -1.53251
H         -4.54639       -3.36289        2.58101
H         -4.29549       -4.77071        0.65203
H          5.50185       -2.52714       -3.52398
H          4.65473       -1.40486       -4.58389
H          6.05816       -0.85760       -3.66359
H          4.03085        5.20624        4.31886
H          5.55651        4.34295        4.11444
H          4.99709        5.44738        2.86188
H          1.59717        5.58756       -4.25376
H          0.65018        4.99035       -5.61805
H         -0.08212        6.09167       -4.45521
H         -7.49866       -0.56024       -1.31507
H         -7.56149        0.86420       -0.27478
H         -7.53070        1.05538       -2.02514
