171
-217.84296368
P         -1.57109        0.36918       -0.34052
P          1.60370       -0.42068       -0.39632
C         -0.90312        1.30251       -1.71829
C          0.87086       -1.40300       -1.71195
C         -0.15103        0.66087       -2.69426
C          0.41439        1.43141       -3.72777
C          0.17454        2.79532       -3.76486
C         -0.59934        3.40735       -2.80163
C         -1.13093        2.65554       -1.77233
C          1.08946       -2.75953       -1.70862
C          0.46882       -3.56792       -2.64004
C         -0.38806       -3.00874       -3.56378
C         -0.61811       -1.64348       -3.58984
C          0.04084       -0.81505       -2.66033
Cl         1.70507        0.27730        2.77697
Cl        -1.55912       -0.38619        2.84681
C         -1.57844       -1.09017       -4.58434
C          1.23346        0.79356       -4.79423
H         -0.78767        4.46741       -2.85039
H         -1.73111        3.12491       -1.00971
H          1.74912       -3.19179       -0.97434
H          0.64498       -4.63120       -2.63591
H          0.59868        3.37950       -4.56401
H         -0.89486       -3.63635       -4.27745
C         -4.00615       -3.21099       -1.63911
C         -2.95738       -3.40450       -0.74916
C         -2.21746       -2.29294       -0.36572
C         -2.51097       -1.05521       -0.88046
C         -3.53829       -0.88265       -1.77561
C         -4.31614       -1.96535       -2.16988
H         -4.61191       -4.05485       -1.91333
H         -1.41034       -2.38001        0.34072
H         -3.73151        0.10712       -2.15342
C         -4.15730        2.95543        2.35260
C         -4.75876        1.94641        1.61093
C         -3.95052        1.18084        0.78061
C         -2.60486        1.43468        0.68460
C         -2.03031        2.44547        1.41547
C         -2.79489        3.21963        2.27786
H         -4.77044        3.53624        3.01559
H         -4.36349        0.36455        0.21621
H         -0.96945        2.61316        1.33652
C          4.34895       -2.82738        2.30256
C          3.01609       -3.20387        2.19387
C          2.20823       -2.48377        1.32424
C          2.71314       -1.42340        0.61237
C          4.03014       -1.05737        0.74293
C          4.87929       -1.75992        1.58913
H          4.99331       -3.36321        2.97366
H          1.16526       -2.73282        1.22346
H          4.38372       -0.20082        0.19748
C          3.85999        3.29630       -1.64833
C          2.86065        3.40244       -0.68830
C          2.15324        2.25370       -0.36009
C          2.45358        1.05416       -0.95597
C          3.45179        0.96312       -1.89512
C          4.18059        2.08922       -2.25982
H          4.40995        4.17647       -1.91927
H          1.36736        2.28907        0.37457
H          3.67510        0.00290       -2.32950
Pd         0.03574       -0.03707        1.31041
C         -1.39616       -4.81921        0.66767
C         -2.67163       -4.80629       -0.19504
C         -2.47562       -5.79191       -1.36248
C         -3.85921       -5.25693        0.67344
H         -1.50677       -4.17733        1.54114
H         -1.17901       -5.82586        1.02453
H         -0.53790       -4.47627        0.09089
H         -2.22974       -6.78786       -0.99448
H         -3.37624       -5.87591       -1.96918
H         -1.66495       -5.46270       -2.01143
H         -3.68193       -6.24647        1.09437
H         -4.01769       -4.56190        1.49786
H         -4.77902       -5.29994        0.09107
C         -5.42377       -2.80914       -4.27049
C         -5.52688       -1.81015       -3.10170
C         -5.61267       -0.38642       -3.68574
C         -6.81067       -2.09130       -2.30009
H         -5.42284       -3.83916       -3.91671
H         -6.26629       -2.69603       -4.95260
H         -4.50938       -2.65034       -4.84014
H         -6.45652       -0.29930       -4.37002
H         -5.75199        0.35433       -2.89869
H         -4.70889       -0.13505       -4.24032
H         -6.90064       -1.40148       -1.46173
H         -7.69540       -1.97884       -2.92649
H         -6.80979       -3.10448       -1.89933
C         -7.04715        2.96397        1.42965
C         -6.26355        1.67881        1.75526
C         -6.56012        1.23908        3.20019
C         -6.73622        0.56749        0.79704
H         -8.12139        2.79326        1.49838
H         -6.79468        3.76938        2.11814
H         -6.82366        3.30468        0.41881
H         -7.61988        1.02225        3.33310
H         -5.99655        0.34064        3.45116
H         -6.28537        2.01544        3.91335
H         -7.80931        0.40306        0.89367
H         -6.53452        0.83520       -0.23997
H         -6.23858       -0.37747        1.01444
C         -1.03548        3.60553        4.01716
C         -2.10552        4.28559        3.14102
C         -3.10480        5.00934        4.06345
C         -1.44065        5.32877        2.22654
H         -0.53495        4.33131        4.65762
H         -1.48713        2.84534        4.65403
H         -0.27491        3.11735        3.40930
H         -3.87441        5.51974        3.48470
H         -3.58926        4.30854        4.74310
H         -2.59717        5.75921        4.67009
H         -0.95096        6.10731        2.81126
H         -0.68814        4.86643        1.59145
H         -2.17897        5.80318        1.58036
C          3.40330       -4.90553        4.04815
C          2.41351       -4.36349        2.99888
C          2.04572       -5.50318        2.03351
C          1.15161       -3.87278        3.73651
H          2.94606       -5.70186        4.63533
H          4.29359       -5.31848        3.57446
H          3.71041       -4.11942        4.73777
H          1.34656       -5.16074        1.27281
H          2.93311       -5.87685        1.52293
H          1.58511       -6.33507        2.56600
H          1.39022       -3.03186        4.38728
H          0.38178       -3.54455        3.04026
H          0.72490       -4.66565        4.35037
C          7.25855       -2.56519        1.51767
C          6.34583       -1.35623        1.79674
C          6.53473       -0.88416        3.24950
C          6.75756       -0.21221        0.85080
H          7.10954       -2.93306        0.50264
H          8.30844       -2.29386        1.62724
H          7.05547       -3.38555        2.20474
H          7.56333       -0.57167        3.42862
H          5.88120       -0.03932        3.46625
H          6.29798       -1.67877        3.95620
H          7.80575        0.05060        0.99272
H          6.62785       -0.50775       -0.18952
H          6.16623        0.68473        1.03428
C          2.40738        4.51816        1.52213
C          2.51410        4.73151       -0.00148
C          1.17114        5.23746       -0.55056
C          3.59073        5.80386       -0.25922
H          2.20500        5.45867        2.03426
H          1.60522        3.82762        1.77638
H          3.33676        4.11068        1.91928
H          1.23905        5.41797       -1.62306
H          0.38446        4.50298       -0.38571
H          0.87456        6.16888       -0.06868
H          3.36192        6.71957        0.28591
H          4.57147        5.45828        0.06736
H          3.64834        6.06092       -1.31656
C          6.38148        0.97833       -2.71432
C          5.33313        1.95964       -3.26853
C          6.02436        3.31313       -3.52561
C          4.79198        1.43240       -4.60830
H          7.21883        0.87074       -3.40358
H          6.77327        1.33516       -1.76222
H          5.95220       -0.01014       -2.55504
H          5.32275        4.04120       -3.93243
H          6.45115        3.71703       -2.60771
H          6.83635        3.20165       -4.24414
H          4.31122        0.46258       -4.48739
H          4.06273        2.12610       -5.02468
H          5.59611        1.31673       -5.33487
H         -1.20186       -1.21023       -5.60116
H          1.91788        1.51161       -5.24616
H         -1.76852       -0.02959       -4.41560
H         -2.53547       -1.60750       -4.51932
H          0.60042        0.39743       -5.58885
H          1.82702       -0.02945       -4.39359
