105
-153.05809878
Cl         0.36834        3.53961        1.75098
Pd        -0.10779        1.99122        0.19594
P         -0.72416        0.29928       -1.35772
N          0.11787       -1.13008       -1.98815
C          0.19577       -2.45711       -1.56888
C         -0.13536       -2.93156       -0.26760
C          0.18603       -4.26276        0.08124
C          0.06946       -4.70584        1.52209
C         -0.08876       -6.22446        1.67929
C          1.01821       -6.95502        0.91348
C          0.98406       -6.59717       -0.58208
C          0.69137       -5.14425       -0.87763
C          0.92641       -4.67934       -2.16397
C          0.70619       -3.36785       -2.49404
H          0.93951       -3.01982       -3.48554
H          1.31236       -5.36184       -2.90238
H          1.93744       -6.86566       -1.05484
H          1.99275       -6.67543        1.33330
H         -0.09262       -6.51389        2.73973
H          0.96988       -4.37424        2.05313
C         -0.73335       -2.06273        0.78274
C          0.07802       -1.06291        1.37606
C         -0.39117       -0.36841        2.49046
C         -1.63914       -0.62859        2.99276
C         -2.46890       -1.58305        2.41158
C         -3.82288       -1.81687        3.04010
C         -4.74659       -2.77080        2.26217
C         -3.95610       -3.91307        1.61648
C         -2.89623       -3.35033        0.65994
C         -2.01700       -2.30747        1.30421
H         -2.28345       -4.16021        0.24780
H         -4.62634       -4.61177        1.09601
H         -5.27097       -2.21093        1.47875
H         -4.31470       -0.84525        3.17636
H         -1.99609       -0.08142        3.84879
H          0.22587        0.39305        2.93060
N          1.24611       -0.71310        0.70914
P          1.83197        0.89042        0.94329
C          3.04265        1.28955       -0.31404
C          3.98626        2.25869       -0.07056
C          4.89694        2.59103       -1.05727
C          4.86764        1.95314       -2.29044
C          3.89804        0.98649       -2.51959
C          2.98925        0.65482       -1.53278
H          2.21116       -0.06376       -1.73121
H          3.85231        0.50291       -3.48055
C          5.82496        2.33445       -3.36537
H          5.63439        3.35423       -0.87615
H          4.00068        2.75555        0.88664
C          2.59969        0.91968        2.56608
C          3.34211       -0.17869        2.92953
C          3.96144       -0.21257        4.16680
C          3.84482        0.85772        5.04370
C          3.08151        1.95273        4.66194
C          2.46439        1.98216        3.42645
H          1.86327        2.82453        3.13165
H          2.97061        2.78075        5.34114
C          4.48784        0.81376        6.38621
H          4.53749       -1.07386        4.45896
H          3.42332       -1.00864        2.24463
H          1.10368       -0.83227       -0.29152
H          0.26589       -0.95813       -2.97554
C         -0.70194        1.44377       -2.75471
C         -1.83463        1.65560       -3.50472
C         -1.80834        2.54656       -4.56154
C         -0.64341        3.23030       -4.88043
C          0.48795        3.01216       -4.10709
C          0.45663        2.12052       -3.05130
H          1.33439        1.96059       -2.45054
H          1.39337        3.54929       -4.33283
C         -0.62151        4.21422       -5.99786
H         -2.69778        2.72197       -5.14233
H         -2.74387        1.13531       -3.25458
C         -2.44701       -0.13297       -1.10716
C         -2.99861       -1.04501       -1.97564
C         -4.34294       -1.36034       -1.88402
C         -5.13912       -0.77337       -0.91066
C         -4.56383        0.14540       -0.04274
C         -3.22309        0.46673       -0.14391
H         -2.78475        1.19551        0.51733
H         -5.17451        0.61603        0.70859
C         -6.58751       -1.10820       -0.82340
H         -4.78084       -2.06876       -2.56629
H         -2.37273       -1.50428       -2.72462
Cl        -1.80220        3.23999       -0.59404
H          0.22706       -7.20881       -1.08753
H         -1.06636       -6.52982        1.28551
H          0.93774       -8.04177        1.05745
H         -0.75829       -4.18757        2.01758
H         -3.46279       -4.50262        2.39936
H         -3.39033       -2.90007       -0.20623
H         -3.66566       -2.20694        4.05291
H         -5.53695       -3.16711        2.91507
H          6.76733        2.68966       -2.94610
H          6.04994        1.48474       -4.01148
H          5.41178        3.13000       -3.98698
H          5.38058        0.18687        6.37558
H          4.78809        1.81094        6.71119
H          3.80132        0.40926        7.13122
H         -1.32044        3.93078       -6.78602
H         -0.89874        5.20781       -5.64318
H          0.37151        4.28106       -6.44450
H         -7.02277       -0.75213        0.11135
H         -7.14038       -0.65125       -1.64523
H         -6.74212       -2.18713       -0.87206
