171
-217.84646653
P         -1.65231        0.43107       -0.31248
P          1.61213       -0.39138       -0.35923
C         -0.92147        1.40104       -1.63690
C          0.85953       -1.31797       -1.69739
C         -0.11629        0.80357       -2.60083
C          0.53055        1.62416       -3.54496
C          0.32117        2.99274       -3.51048
C         -0.50112        3.56296       -2.56205
C         -1.11442        2.76118       -1.61986
C          1.06179       -2.67507       -1.74700
C          0.46420       -3.42840       -2.73865
C         -0.34844       -2.81326       -3.66770
C         -0.56586       -1.44570       -3.63296
C          0.06279       -0.67427       -2.63704
Cl         1.65218        0.48995        2.76375
Cl        -1.45791       -0.28107        2.93992
C         -1.43503       -0.81150       -4.66198
C          1.43599        1.05181       -4.57925
H         -0.65863        4.62906       -2.54941
H         -1.74596        3.19978       -0.86443
H          1.69095       -3.14555       -1.00833
H          0.63161       -4.49203       -2.78475
H          0.81584        3.61432       -4.23775
H         -0.82409       -3.39805       -4.43688
C         -3.80015       -3.36750       -1.48877
C         -2.83073       -3.42408       -0.49465
C         -2.15496       -2.25150       -0.18498
C         -2.45743       -1.07974       -0.83292
C         -3.42684       -1.03653       -1.80422
C         -4.12081       -2.18945       -2.15277
H         -4.33594       -4.26067       -1.74896
H         -1.39560       -2.24407        0.57763
H         -3.64385       -0.09259       -2.27468
C         -4.49700        2.84952        2.26206
C         -3.14708        3.18149        2.26553
C         -2.29717        2.45042        1.44686
C         -2.77983        1.41859        0.68116
C         -4.11369        1.09548        0.70017
C         -5.00426        1.81268        1.48841
H         -5.17636        3.40248        2.88298
H         -1.24440        2.67615        1.41962
H         -4.45240        0.26804        0.10283
C          4.29495       -2.94915        2.25933
C          2.92191       -3.16795        2.29242
C          2.12046       -2.40588        1.45247
C          2.67219       -1.44651        0.64047
C          4.02792       -1.23532        0.63076
C          4.87094       -1.98958        1.43448
H          4.92935       -3.53147        2.89922
H          1.05207       -2.54129        1.45374
H          4.43350       -0.46050        0.00431
C          3.97086        3.21713       -1.70983
C          4.26538        1.98068       -2.27158
C          3.50973        0.88763       -1.86394
C          2.51823        1.04160       -0.92685
C          2.23831        2.27009       -0.38344
C          2.95448        3.39212       -0.77904
H          4.56546        4.06709       -1.98927
H          3.69406       -0.09554       -2.26278
H          1.46302        2.34242        0.35917
Pd         0.01231        0.10546        1.27326
C         -2.35412       -4.46202        1.75190
C         -2.47608       -4.72655        0.23720
C         -1.13773       -5.24997       -0.30694
C         -3.55567       -5.80642        0.02736
H         -2.15749       -5.38679        2.29405
H         -1.54173       -3.77316        1.97677
H         -3.27578       -4.03145        2.14258
H         -1.21737       -5.47355       -1.37044
H         -0.35188       -4.50669       -0.18095
H         -0.83239       -6.16049        0.20827
H         -3.61778       -6.10701       -1.01811
H         -3.32696       -6.69954        0.60881
H         -4.53449       -5.44500        0.34236
C         -6.57529       -2.54723       -2.49251
C         -5.25181       -2.18438       -3.19110
C         -4.94840       -3.21863       -4.29149
C         -5.41280       -0.80059       -3.85031
H         -7.40500       -2.53892       -3.19913
H         -6.52682       -3.53953       -2.04542
H         -6.80008       -1.83458       -1.69942
H         -5.72301       -3.20980       -5.05812
H         -3.99558       -3.00400       -4.77340
H         -4.89631       -4.22796       -3.88539
H         -4.49580       -0.49491       -4.35268
H         -6.20777       -0.81763       -4.59573
H         -5.67147       -0.04164       -3.11219
C         -2.08617        5.44617        2.20792
C         -2.56968        4.31213        3.12818
C         -1.38536        3.77156        3.95458
C         -3.61994        4.87873        4.10275
H         -1.32880        5.08868        1.51221
H         -2.91335        5.84618        1.62181
H         -1.65389        6.26267        2.78604
H         -0.57146        3.43299        3.31510
H         -0.98688        4.54117        4.61523
H         -1.69894        2.92752        4.56843
H         -4.45526        5.32703        3.56534
H         -4.00752        4.09741        4.75633
H         -3.18366        5.65295        4.73381
C         -6.87512        1.05150        2.97101
C         -6.50086        1.47394        1.53887
C         -6.85414        0.31922        0.57979
C         -7.31943        2.71227        1.12963
H         -6.28766        0.18792        3.28233
H         -6.68908        1.85578        3.68184
H         -7.92979        0.78475        3.03659
H         -6.31973       -0.59208        0.84783
H         -7.92064        0.09763        0.61670
H         -6.60584        0.57591       -0.44992
H         -7.14886        3.54439        1.81159
H         -7.04586        3.03961        0.12671
H         -8.38696        2.49266        1.13355
C          1.52487       -5.24507        2.42315
C          2.26195       -4.17441        3.24571
C          1.25693       -3.42888        4.14582
C          3.29742       -4.87432        4.14637
H          0.74679       -4.79641        1.80922
H          2.21513       -5.76718        1.76083
H          1.05369       -5.98274        3.07249
H          1.75776       -2.64511        4.71354
H          0.46850       -2.95923        3.55917
H          0.78428       -4.11048        4.85256
H          4.01826       -5.43637        3.55289
H          3.83859       -4.15113        4.75622
H          2.80944       -5.57623        4.82253
C          6.90065       -1.93053       -0.03661
C          6.38067       -1.71314        1.39688
C          7.15644       -2.64622        2.34591
C          6.63734       -0.25546        1.82369
H          6.41604       -1.25489       -0.74031
H          7.97482       -1.75517       -0.09319
H          6.70677       -2.95117       -0.36584
H          7.00987       -3.69152        2.07452
H          8.22589       -2.44060        2.30113
H          6.83779       -2.50823        3.37893
H          7.70388       -0.03136        1.82678
H          6.15148        0.44713        1.14746
H          6.25031       -0.07484        2.82627
C          5.33559        2.89044       -4.36355
C          5.44596        1.83870       -3.24268
C          5.47995        0.44152       -3.89319
C          6.75556        2.05062       -2.46222
H          5.38725        3.90388       -3.96823
H          6.14614        2.77695       -5.08330
H          4.39352        2.78783       -4.90068
H          5.63337       -0.33769       -3.14713
H          4.55104        0.23351       -4.42352
H          6.29590        0.36954       -4.61220
H          6.84841        1.31915       -1.65957
H          7.62164        1.94769       -3.11571
H          6.78841        3.04323       -2.01398
C          1.41812        4.77677        0.69769
C          2.68104        4.78053       -0.18586
C          2.46972        5.79620       -1.32459
C          3.88422        5.20491        0.67391
H          1.54004        4.11948        1.55829
H          1.20725        5.77669        1.07651
H          0.54959        4.44537        0.12943
H          3.36200        5.89631       -1.94103
H          1.64999        5.48426       -1.97074
H          2.22954        6.78229       -0.92743
H          3.71899        6.18519        1.12059
H          4.05208        4.48987        1.47915
H          4.79471        5.25651        0.07769
H         -2.26822       -1.46328       -4.92537
H          2.35167        1.63853       -4.65744
H         -0.87244       -0.60546       -5.57343
H         -1.85300        0.12992       -4.30268
H          0.95621        1.04779       -5.55891
H          1.72260        0.02736       -4.33814
