59
-75.79751265
Cl         1.46447        0.74562        2.36216
P          1.59280       -0.10489       -0.78025
P         -1.60945       -0.16170       -0.83109
C          0.64478        0.38472       -2.28937
H          0.41924        1.45177       -2.21980
H          1.28556        0.23912       -3.16442
C         -0.62210       -0.42183       -2.37129
H         -0.39847       -1.48676       -2.46370
H         -1.23793       -0.14445       -3.23235
C          2.32927       -1.77489       -1.05540
H          1.71202       -2.25619       -1.82567
C          3.15246        0.86428       -0.54800
H          3.25227        1.00095        0.53608
C         -2.90980       -1.44187       -0.51470
H         -2.89961       -1.61925        0.56783
C         -2.68231        1.33739       -1.01575
H         -2.61769        1.63674       -2.06890
C          3.72107       -1.42855       -1.61985
H          4.42374       -2.24508       -1.39718
H          3.66645       -1.38484       -2.71848
C          4.26527       -0.07041       -1.08077
H          4.82023        0.45040       -1.87379
H          5.00929       -0.24947       -0.29126
C         -4.20541       -0.71825       -0.92038
H         -4.40402       -0.91637       -1.98285
H         -5.06510       -1.13724       -0.37519
C         -4.09263        0.81350       -0.68832
H         -4.31631        1.03726        0.36375
H         -4.85055        1.35603       -1.27341
C          2.33813       -2.63053        0.21125
H          2.68417       -3.64223       -0.04345
H          1.30485       -2.75815        0.56158
C          3.09639        2.22876       -1.22319
H          4.10252        2.67116       -1.22780
H          2.83691        2.09171       -2.28093
C         -2.65719       -2.74935       -1.25546
H         -3.55644       -3.37787       -1.19195
H         -2.53211       -2.53384       -2.32449
C         -2.21013        2.47182       -0.11535
H         -2.25491        2.13632        0.92922
H         -1.14702        2.66594       -0.30941
C          3.18722       -2.07388        1.34268
H          2.86367       -1.07219        1.62511
H          4.23864       -2.00764        1.05981
H          3.13218       -2.69600        2.23900
C          2.11881        3.17859       -0.54740
H          2.40971        3.37287        0.48673
H          1.11396        2.75755       -0.51679
H          2.05835        4.14142       -1.05969
C         -1.45462       -3.50832       -0.71642
H         -1.26635       -4.43011       -1.27145
H         -1.59593       -3.77783        0.33201
H         -0.54975       -2.90290       -0.76799
C         -3.01488        3.75041       -0.29337
H         -2.96354        4.10767       -1.32363
H         -4.06919        3.59169       -0.05999
H         -2.65405        4.55436        0.35222
Cl        -1.77094       -0.01892        2.27421
Pd        -0.03440        0.05038        0.85099
