111
-148.55106063
P         -2.38959        2.34948       -0.18357
P         -0.01193        0.36149        0.50232
C         -1.76935        2.24289        1.51296
C         -0.77332        1.34010        1.81488
C         -2.48725        4.09400       -0.78564
C         -1.67531        4.25444       -2.05255
C         -2.31180        3.03068        2.50783
H         -3.07391        3.75123        2.25961
C         -1.87212        2.89189        3.81291
H         -2.29689        3.50465        4.59118
C         -0.89754        1.96196        4.11983
H         -0.56262        1.84547        5.13740
C         -0.34772        1.18264        3.11781
H          0.40777        0.44621        3.34374
Pd        -1.20552        0.82361       -1.44535
Cl        -2.65802        1.11520       -3.12834
Cl        -0.05465       -0.83946       -2.43295
C         -4.00171        4.31905       -0.97998
C         -4.16349        1.83940       -0.36062
H         -2.05454        3.59587       -2.83644
H         -1.71937        5.27865       -2.43087
H         -0.62558        3.99879       -1.88762
H         -4.16487        5.00405       -1.82468
H         -4.42041        4.82982       -0.10047
H         -4.16148        0.89077       -0.91495
C         -4.76100        2.98132       -1.20726
C         -4.83822        1.66372        0.98340
H         -2.08739        4.73188        0.01434
H         -5.82933        3.09519       -0.97194
H         -4.71760        2.71576       -2.27382
H         -5.85646        1.28284        0.87465
H         -4.28275        0.97270        1.62047
H         -4.90141        2.61673        1.51062
C         -1.13283       -4.03486        0.78531
C          0.23575       -3.67692        0.68083
C          0.55730       -2.33225        0.61263
C         -0.41115       -1.36852        0.71016
C         -1.72371       -1.70498        0.91635
C         -2.11263       -3.03215        1.00410
O         -1.52555       -5.38994        0.62279
C          1.36102       -4.71752        0.57518
H          1.57336       -2.01904        0.45226
H         -2.44757       -0.91069        0.98604
C         -3.58703       -3.35933        1.28607
C          4.47858        1.11113        0.07851
C          3.79202        0.31261       -0.87006
C          2.42692        0.14701       -0.71803
C          1.75483        0.66653        0.35700
C          2.43428        1.36091        1.32481
C          3.80070        1.56889        1.23675
O          5.83179        1.47963       -0.14666
C          4.49435       -0.34822       -2.06690
H          1.85482       -0.38330       -1.45744
H          1.87803        1.75536        2.15498
C          4.52229        2.29954        2.38090
C          2.67342       -4.16513        1.17702
C          1.01324       -5.99632        1.35834
C          1.60138       -5.05104       -0.90524
C         -3.73021       -4.69822        2.03239
C         -4.21972       -2.27490        2.18679
C         -4.35838       -3.40477       -0.04183
C         -1.82895       -5.74325       -0.72110
H          2.51202       -3.80465        2.19257
H          3.43796       -4.94080        1.21470
H          3.07864       -3.34709        0.58390
H          0.14021       -6.49221        0.94166
H          1.83863       -6.70740        1.33376
H          0.79832       -5.76157        2.40028
H          0.71198       -5.47826       -1.36205
H          1.86011       -4.15293       -1.46527
H          2.41511       -5.76692       -1.01806
H         -3.37968       -5.53041        1.42740
H         -3.14896       -4.68754        2.95381
H         -4.77080       -4.89413        2.28984
H         -3.61949       -2.11483        3.08210
H         -4.31529       -1.32612        1.66284
H         -5.22099       -2.56791        2.50181
H         -3.95910       -4.16942       -0.70383
H         -5.41303       -3.62120        0.12619
H         -4.28802       -2.44895       -0.56076
H         -1.68216       -4.88693       -1.38077
H         -1.18328       -6.56181       -1.03873
H         -2.86326       -6.08016       -0.78750
C          5.99039        2.68931       -0.87747
C          5.94480       -0.72901       -1.71909
C          3.77319       -1.65487       -2.47035
C          4.46915        0.61362       -3.26425
C          3.79948        2.05877        3.72620
C          5.96215        1.78052        2.54800
C          4.53292        3.80883        2.09553
H          6.54490        0.15029       -1.49936
H          5.97138       -1.37834       -0.84460
H          6.42116       -1.25444       -2.54642
H          4.33558       -2.18600       -3.23785
H          3.66926       -2.31894       -1.61335
H          2.78206       -1.46179       -2.87771
H          4.95349        0.16858       -4.13300
H          3.44340        0.85913       -3.53848
H          4.98156        1.54449       -3.03355
H          2.82453        2.54327        3.75320
H          3.65940        0.99313        3.90592
H          4.37981        2.46402        4.55483
H          6.45227        2.25153        3.39971
H          5.96527        0.70285        2.70806
H          6.56385        1.98835        1.66674
H          5.05485        4.03142        1.16812
H          5.02725        4.35448        2.89890
H          3.51632        4.19053        2.00371
H          6.53333        2.49085       -1.80135
H          5.01738        3.12213       -1.11321
H          6.57111        3.39857       -0.28790
