105
-153.06947266
Cl        -0.00793        1.89158        3.07577
Pd        -0.63114        1.12497        1.05338
P         -1.22932        0.50195       -1.12374
N         -0.92747       -1.04404       -1.90242
C          0.08618       -1.96664       -1.63063
C          0.32093       -2.48036       -0.32819
C          1.33403       -3.44191       -0.13708
C          1.54414       -4.01353        1.24522
C          2.41802       -5.27671        1.28957
C          3.64220       -5.12949        0.38162
C          3.21152       -4.88898       -1.07295
C          2.10216       -3.87777       -1.22006
C          1.83083       -3.38464       -2.48992
C          0.84079       -2.46000       -2.69492
H          0.64723       -2.08546       -3.68492
H          2.41654       -3.73758       -3.32185
H          4.06965       -4.56201       -1.67414
H          4.25026       -4.28414        0.72718
H          2.72372       -5.50438        2.32055
H          1.99267       -3.23625        1.87445
C         -0.61850       -2.19155        0.78165
C         -0.13948       -1.61007        1.98919
C         -1.01020       -1.52943        3.08107
C         -2.30764       -1.96077        2.98211
C         -2.79895       -2.51512        1.80636
C         -4.23299       -2.99047        1.79297
C         -4.74671       -3.44743        0.41694
C         -3.66273       -4.20778       -0.35174
C         -2.42602       -3.32159       -0.55644
C         -1.94949       -2.64547        0.70531
H         -1.60479       -3.91410       -0.97871
H         -4.04788       -4.57345       -1.31418
H         -5.05572       -2.57372       -0.16974
H         -4.87036       -2.18882        2.18738
H         -2.96693       -1.87200        3.82901
H         -0.65758       -1.08027        3.99290
N          1.13344       -1.02992        2.08570
P          1.53208        0.16865        0.85445
C          2.66368       -0.41819       -0.39768
C          2.54614        0.06272       -1.67696
C          3.45832       -0.32426       -2.64132
C          4.50501       -1.17813       -2.31860
C          4.61720       -1.63558       -1.01201
C          3.70092       -1.24886       -0.05035
H          3.78707       -1.58934        0.96918
H          5.42464       -2.29886       -0.75314
C          5.46266       -1.63150       -3.36436
H          3.35879        0.03233       -3.65220
H          1.73838        0.73352       -1.91195
C          2.36633        1.60461        1.54275
C          3.17107        1.48432        2.64973
C          3.81946        2.59944        3.14889
C          3.66502        3.83858        2.54134
C          2.86537        3.93320        1.41030
C          2.21848        2.81750        0.91174
H          1.59362        2.88824        0.03502
H          2.75088        4.88616        0.92261
C          4.37833        5.03530        3.06704
H          4.45123        2.51340        4.01640
H          3.29606        0.52052        3.11576
H          1.32662       -0.57242        2.96722
H         -1.20610       -0.91719       -2.86689
C         -0.51081        1.85329       -2.06228
C         -0.56685        3.12530       -1.54311
C          0.01814        4.17574       -2.22407
C          0.66072        3.95894       -3.43529
C          0.67866        2.67394       -3.96104
C          0.09264        1.62524       -3.27643
H          0.12153        0.62585       -3.67762
H          1.15881        2.49908       -4.90872
C          1.27831        5.09170       -4.17868
H         -0.02306        5.17233       -1.81876
H         -1.08373        3.29004       -0.61098
C         -3.01372        0.69404       -1.16490
C         -3.59816        1.45757       -2.14733
C         -4.97313        1.60492       -2.17719
C         -5.77002        0.99478       -1.21786
C         -5.16120        0.21915       -0.24128
C         -3.78696        0.06802       -0.21916
H         -3.30829       -0.52526        0.54153
H         -5.77032       -0.25927        0.50637
C         -7.25179        1.13667       -1.25567
H         -5.43576        2.19963       -2.94621
H         -2.97707        1.93841       -2.88595
Cl        -2.49926        2.37840        1.14382
H          2.88286       -5.83397       -1.52172
H          1.82586       -6.14017        0.96135
H          4.29355       -6.01171        0.45758
H          0.56388       -4.22183        1.69230
H         -3.37772       -5.10443        0.21279
H         -2.64661       -2.54934       -1.30232
H         -4.32716       -3.81486        2.50997
H         -5.65159       -4.06237        0.52268
H          6.44290       -1.84403       -2.93540
H          5.10340       -2.54017       -3.84949
H          5.59594       -0.86929       -4.13332
H          3.81366        5.94765        2.87009
H          4.52454        4.96394        4.14571
H          5.35875        5.13829        2.60003
H          2.12157        4.75334       -4.78245
H          0.55248        5.55905       -4.84550
H          1.64803        5.85637       -3.49405
H         -7.67155        1.13896       -0.24876
H         -7.54663        2.06938       -1.73845
H         -7.70596        0.31300       -1.80818
