111
-148.55019781
P         -2.05149        2.55608        0.86383
P         -0.23930       -0.02758        0.55688
C         -1.31665        1.79668        2.33199
C         -0.53586        0.66984        2.19668
C         -1.67861        4.36755        0.82249
C         -1.04170        4.75302       -0.49496
C         -1.48563        2.37557        3.57338
H         -2.07634        3.27227        3.66644
C         -0.87634        1.81624        4.68315
H         -1.01005        2.26565        5.65360
C         -0.08391        0.69319        4.54467
H          0.40356        0.26602        5.40555
C          0.09618        0.12574        3.29596
H          0.74752       -0.72458        3.16707
Pd        -1.34025        1.35555       -0.96432
Cl        -2.74459        2.46562       -2.31157
Cl        -0.32907        0.20389       -2.61134
C         -3.05875        5.01351        1.06250
C         -3.90254        2.59969        0.86130
H         -0.12032        4.19325       -0.67021
H         -1.71766        4.53859       -1.32471
H         -0.80275        5.81862       -0.52977
H         -3.10572        5.98201        0.54346
H         -3.18409        5.24386        2.13069
H         -4.22212        1.97380        0.01651
C         -4.21666        4.08667        0.59678
C         -4.47881        2.06701        2.15551
H         -0.99227        4.56968        1.65617
H         -5.15721        4.35880        1.09749
H         -4.39634        4.24353       -0.47706
H         -5.57096        2.04994        2.13015
H         -4.12900        1.05187        2.35771
H         -4.18175        2.69309        2.99802
C         -0.97626       -4.52155        0.23028
C         -1.13901       -3.88439        1.48689
C         -0.91745       -2.51952        1.56566
C         -0.61509       -1.78248        0.44922
C         -0.58166       -2.38041       -0.78348
C         -0.79226       -3.73888       -0.93705
O         -0.95866       -5.93939        0.14884
C         -1.50722       -4.65987        2.76164
H         -0.97418       -2.01412        2.51197
H         -0.38315       -1.75814       -1.63725
C         -0.78414       -4.33828       -2.35205
C          3.98356        1.06113       -0.73736
C          3.55204       -0.28474       -0.86218
C          2.26431       -0.59941       -0.46423
C          1.44826        0.34600        0.09697
C          1.89220        1.62484        0.31141
C          3.17190        2.00552       -0.05700
O          5.20906        1.47536       -1.32367
C          4.43034       -1.39223       -1.46487
H          1.87320       -1.59067       -0.60623
H          1.21351        2.32708        0.76507
C          3.64889        3.43144        0.25972
C         -2.28475       -3.75698        3.74626
C         -2.41763       -5.85822        2.43688
C         -0.22260       -5.14370        3.45118
C          0.65656       -4.70425       -2.74029
C         -1.68996       -5.58012       -2.43620
C         -1.32642       -3.31649       -3.37793
C          0.33879       -6.50856        0.27265
H         -1.65426       -2.96897        4.15553
H         -3.13949       -3.29318        3.25458
H         -2.65839       -4.33693        4.58989
H         -2.73182       -6.36967        3.34638
H         -3.31069       -5.52909        1.90672
H         -1.90703       -6.58570        1.81065
H          0.34667       -5.80604        2.80346
H          0.41779       -4.30025        3.70840
H         -0.45205       -5.68569        4.36827
H          1.08320       -5.42185       -2.04331
H          0.69335       -5.13995       -3.73836
H          1.29225       -3.81933       -2.73613
H         -1.32568       -6.38174       -1.79885
H         -2.70382       -5.33712       -2.11996
H         -1.73509       -5.96420       -3.45497
H         -0.65110       -2.47166       -3.50352
H         -1.44563       -3.77785       -4.35789
H         -2.29822       -2.93398       -3.06731
H          0.34924       -7.21450        1.10301
H          0.59053       -7.05083       -0.63853
H          1.08142       -5.72913        0.44823
C          5.08496        1.92069       -2.66856
C          4.17166       -1.47106       -2.97737
C          5.92306       -1.13485       -1.19111
C          4.08963       -2.76219       -0.83386
C          3.33215        4.35412       -0.92678
C          2.93122        3.98141        1.51392
C          5.15882        3.45124        0.55865
H          4.77142       -2.25634       -3.43668
H          3.12215       -1.68615       -3.17737
H          4.41367       -0.53129       -3.46803
H          6.53688       -1.95371       -1.56556
H          6.26467       -0.22220       -1.67230
H          6.10510       -1.03591       -0.12153
H          3.09299       -3.10041       -1.11223
H          4.79042       -3.52688       -1.16819
H          4.14269       -2.71170        0.25332
H          3.63295        5.37977       -0.71456
H          3.85059        4.03276       -1.82641
H          2.26436        4.35308       -1.14222
H          3.36104        4.93535        1.81857
H          1.87177        4.15331        1.32943
H          3.02630        3.28930        2.35026
H          5.73834        3.14632       -0.30939
H          5.39716        2.77059        1.37531
H          5.48935        4.45023        0.84185
H          4.03781        1.91887       -2.97414
H          5.48968        2.92885       -2.75678
H          5.65603        1.26690       -3.32728
