111
-148.55094415
P         -2.03456        2.56812        0.92166
P         -0.23075       -0.03594        0.54479
C         -1.29170        1.75869        2.36238
C         -0.51245        0.63481        2.19604
C         -1.65412        4.37959        0.97689
C         -1.02967        4.85076       -0.31823
C         -1.45437        2.30438        3.61980
H         -2.04382        3.19872        3.73958
C         -0.84197        1.71561        4.71253
H         -0.97202        2.13949        5.69490
C         -0.05176        0.59558        4.54215
H          0.43728        0.14449        5.38984
C          0.12240        0.06099        3.27825
H          0.76866       -0.78929        3.12484
Pd        -1.35815        1.36124       -0.92886
Cl        -2.66495        2.74992       -2.11709
Cl        -0.56897        0.19738       -2.67629
C         -3.02686        5.01585        1.27744
C         -3.88536        2.62074        0.94745
H         -1.72472        4.72043       -1.14896
H         -0.76363        5.90956       -0.27479
H         -0.12713        4.28349       -0.55469
H         -3.07793        6.01259        0.81541
H         -3.13290        5.18588        2.35891
H         -4.21839        2.05019        0.06935
C         -4.19726        4.12212        0.77993
C         -4.44772        2.00884        2.21265
H         -0.95613        4.52611        1.81263
H         -5.12656        4.36643        1.31477
H         -4.39753        4.34434       -0.27859
H         -4.09806        0.98237        2.34644
H         -4.13935        2.57988        3.08943
H         -5.54012        1.99525        2.19935
C         -0.95906       -4.52854        0.18375
C         -1.15384       -3.89523        1.43765
C         -0.93424       -2.53065        1.52603
C         -0.60742       -1.78952        0.41916
C         -0.54702       -2.38311       -0.81482
C         -0.74811       -3.74226       -0.97650
O         -0.93920       -5.94615        0.09834
C         -1.55776       -4.67369        2.69974
H         -1.01281       -2.02850        2.47257
H         -0.34275       -1.75611       -1.66383
C         -0.70118       -4.34003       -2.39148
C          3.98008        1.03754       -0.79991
C          3.56560       -0.31839       -0.85214
C          2.27951       -0.62623       -0.44374
C          1.45061        0.33820        0.06445
C          1.88082        1.63062        0.21663
C          3.15608        2.00691       -0.17146
O          5.20065        1.43328       -1.40882
C          4.46362       -1.44659       -1.38341
H          1.90146       -1.62877       -0.53226
H          1.19426        2.34674        0.63537
C          3.61089        3.45612        0.06029
C         -2.36368       -3.77300        3.66335
C         -2.45830       -5.87149        2.34648
C         -0.29332       -5.15853        3.42485
C         -1.20831       -3.31572       -3.43260
C          0.74880       -4.71184       -2.73744
C         -1.60927       -5.57805       -2.50288
C          0.35343       -6.51674        0.25991
H         -2.76094       -4.35465        4.49493
H         -1.74571       -2.98527        4.09182
H         -3.20431       -3.30887        3.14820
H         -1.92948       -6.59820        1.73465
H         -2.79951       -6.38414        3.24550
H         -3.33511       -5.54146        1.79037
H          0.29369       -5.82081        2.79311
H          0.33992       -4.31552        3.70054
H         -0.54885       -5.70091        4.33480
H         -1.30181       -3.77662       -4.41556
H         -2.18651       -2.92771       -3.15020
H         -0.52483       -2.47478       -3.53880
H          1.38855       -3.83031       -2.70990
H          1.15057       -5.43445       -2.03103
H          0.81375       -5.14364       -3.73578
H         -1.62640       -5.96121       -3.52286
H         -1.26673       -6.38161       -1.85594
H         -2.63085       -5.33109       -2.21590
H          0.33921       -7.22213        1.09065
H          0.63022       -7.06021       -0.64327
H          1.09175       -5.73811        0.45606
C          5.07164        1.79993       -2.77683
C          4.22618       -1.61193       -2.89229
C          5.94947       -1.15523       -1.10607
C          4.13086       -2.78409       -0.68230
C          5.12405        3.52222        0.33549
C          3.25945        4.30416       -1.17149
C          2.90089        4.06075        1.29343
H          4.47129       -0.70044       -3.43215
H          4.83586       -2.41879       -3.29808
H          3.18063       -1.84351       -3.09420
H          6.57814       -1.98544       -1.42703
H          6.28568       -0.26603       -1.63302
H          6.11648       -0.99494       -0.04146
H          3.14243       -3.15013       -0.95511
H          4.84572       -3.55681       -0.96428
H          4.16796       -2.67313        0.40106
H          5.43732        4.54137        0.56056
H          5.38768        2.89092        1.18338
H          5.69833        3.18372       -0.52343
H          3.77012        3.94044       -2.05955
H          2.18879        4.27161       -1.36996
H          3.54430        5.34542       -1.02298
H          3.31538        5.03857        1.53764
H          3.02305        3.41823        2.16503
H          1.83557        4.20110        1.11785
H          5.67192        1.13226       -3.39446
H          4.02783        1.74318       -3.08851
H          5.43986        2.81596       -2.91824
