64
-97.20661811
Cl        -1.59249       -1.53692       -2.49846
Cl         1.55889       -1.78990       -2.79511
P          1.98924       -0.64556        0.20765
C          2.32120       -2.27157        1.02832
C          3.72258       -0.17094       -0.24530
P         -1.25557       -0.11416        0.42117
C          1.32668        0.59970        1.37025
C         -0.09839        0.83815        1.47323
C         -0.31083        1.95492        2.38409
C          0.98876        2.42400        2.83184
C          1.99665        1.61675        2.16558
H         -1.27559        2.38039        2.66542
H          1.17505        3.25548        3.51505
Pd         0.16740       -1.12357       -1.16730
H          3.07804        1.71768        2.28005
C         -4.69018        2.61370       -0.80241
C         -4.39015        2.42525        0.53224
C         -3.36125        1.57381        0.89401
C         -2.63529        0.92349       -0.07825
C         -2.95017        1.09033       -1.40749
C         -3.97544        1.94168       -1.77389
H         -5.49067        3.27761       -1.08572
H         -4.95598        2.93953        1.29167
H         -3.12643        1.40576        1.93275
H         -2.41018        0.53058       -2.15187
H         -4.21928        2.07456       -2.81517
C         -2.83257       -3.78571        2.58122
C         -2.36017       -2.70969        3.30773
C         -1.88366       -1.58989        2.64968
C         -1.88183       -1.55814        1.27435
C         -2.35407       -2.62515        0.54683
C         -2.83150       -3.74566        1.20045
H         -3.20389       -4.65850        3.09318
H         -2.36207       -2.74139        4.38491
H         -1.50977       -0.74121        3.20015
H         -2.33763       -2.57302       -0.52997
H         -3.20011       -4.58445        0.63316
C          3.98531       -0.34919       -1.72452
H          3.85500        0.87859        0.04921
C          4.56978       -1.10921        0.63621
H          4.77737       -0.62811        1.60337
C          3.84426       -2.46052        0.87739
H          5.55097       -1.27261        0.16673
C          1.84975       -2.23603        2.46585
H          1.76989       -3.03383        0.46076
H          4.24291       -2.95970        1.77216
H          4.05616       -3.14193        0.04071
H          2.36610       -1.44914        3.01938
H          0.77882       -2.03123        2.52721
H          2.04192       -3.18316        2.97553
H          4.99846       -0.04201       -1.99355
H          3.87266       -1.39725       -2.00710
H          3.28318        0.22526       -2.33167
Fe         0.79669        2.48647        0.77503
C          1.77111        3.93008       -0.29533
C          0.41557        4.34636        0.02396
C         -0.49749        3.37095       -0.54494
C          0.29346        2.34947       -1.20492
C          1.69365        2.69732       -1.05968
H          2.68647        4.46473       -0.03102
H          0.13215        5.24570        0.57576
H         -1.58761        3.40044       -0.49027
H         -0.10095        1.50912       -1.77869
H          2.53784        2.16579       -1.50098
