87
-129.18130456
P         -1.53693       -0.16852       -0.26641
P          1.71871        0.43204        0.18946
C         -1.18450        1.06448       -1.52284
C          1.53260       -0.64830       -1.25379
C         -0.13370        0.84194       -2.40316
C          0.13278        1.80242       -3.39974
C         -0.67169        2.92703       -3.48337
C         -1.71308        3.12572       -2.60112
C         -1.96722        2.18858       -1.61919
C          2.24074       -1.82549       -1.18221
C          2.09895       -2.79341       -2.15700
C          1.22268       -2.58524       -3.19871
C          0.48824       -1.41580       -3.28893
C          0.65662       -0.41425       -2.31302
Cl         1.20396        0.01818        3.32007
Cl        -1.47283       -1.73223        2.58690
H         -2.32612        4.00878       -2.67681
H         -2.78639        2.32854       -0.93379
H          2.90290       -1.99483       -0.34862
H          2.65789       -3.71261       -2.09302
H         -0.47210        3.65446       -4.25176
H          1.09161       -3.34377       -3.95181
C         -2.57422       -4.09387       -2.30082
C         -1.59533       -4.08063       -1.31653
C         -1.30958       -2.87810       -0.68211
C         -1.96674       -1.72549       -1.04390
C         -2.92766       -1.74349       -2.02728
C         -3.23747       -2.93546       -2.65572
H         -2.81278       -5.02292       -2.78987
C         -0.88484       -5.32687       -0.92152
H         -0.56282       -2.84632        0.09318
H         -3.42241       -0.82524       -2.30290
H         -3.99141       -2.95820       -3.42540
C         -4.95530        1.23440        2.40077
C         -3.81935        2.00902        2.27389
C         -2.78460        1.58617        1.46195
C         -2.89628        0.39922        0.77599
C         -4.02490       -0.37615        0.90473
C         -5.07071        0.02669        1.72639
H         -5.76398        1.56210        3.03160
H         -3.73733        2.94076        2.80921
H         -1.89099        2.17889        1.35604
H         -4.09270       -1.30937        0.37217
C         -6.29826       -0.80557        1.85026
C          5.85517       -0.15238        1.99835
C          5.60596        0.92372        1.16971
C          4.34469        1.10290        0.63285
C          3.34395        0.20596        0.92683
C          3.59160       -0.86851        1.74953
C          4.85013       -1.05857        2.30702
H          6.83732       -0.29588        2.41560
H          6.39307        1.62345        0.94102
H          4.13529        1.93930       -0.01409
H          2.79713       -1.55966        1.97777
C          5.11399       -2.22829        3.18851
C          0.79331        4.86003       -0.24789
C          0.32153        4.15442        0.84130
C          0.62228        2.81246        0.97176
C          1.36671        2.18277        0.00101
C          1.86045        2.88812       -1.07100
C          1.58181        4.24332       -1.20948
H          0.56006        5.90564       -0.35570
H         -0.26969        4.65058        1.59348
H          0.31818        2.25965        1.84623
H          2.45469        2.37985       -1.81167
C          2.08895        5.01364       -2.37748
Pd        -0.02394       -0.41651        1.49541
C          1.25349        1.63035       -4.36501
C         -0.47573       -1.25541       -4.41348
H          1.81142        2.56006       -4.48442
H          1.95576        0.86638       -4.02938
H          0.87934        1.33702       -5.34657
H          0.04614       -1.03516       -5.34544
H         -1.05430       -2.16851       -4.56072
H         -1.18383       -0.44843       -4.22273
H         -1.37497       -5.79786       -0.06837
H         -0.86534       -6.04723       -1.74053
H          0.14844       -5.11563       -0.64185
H         -6.78491       -0.64945        2.81403
H         -7.01513       -0.55819        1.06606
H         -6.06136       -1.86734        1.76783
H          4.24400       -2.45507        3.80659
H          5.34774       -3.11458        2.59699
H          5.95429       -2.03767        3.85751
H          1.28479        5.21945       -3.08511
H          2.51158        5.96836       -2.06117
H          2.86942        4.46453       -2.90603
