59
-75.80137479
Cl         1.41739        0.46752        2.41563
P          1.43055        0.12651       -0.79953
P         -1.72554       -0.18712       -0.79744
C          0.46523        0.30366       -2.36553
H          0.15799        1.34716       -2.46648
H          1.11949        0.07052       -3.21134
C         -0.73654       -0.59540       -2.30374
H         -0.42931       -1.64203       -2.23804
H         -1.37909       -0.49584       -3.18412
C          2.54555       -1.34780       -0.86680
H          2.29532       -1.90642       -1.77734
C          2.67311        1.47059       -0.50835
H          2.35937        2.00007        0.40018
C         -3.05233       -1.43033       -0.44722
H         -3.11727       -1.50298        0.64536
C         -2.77344        1.31591       -1.08973
H         -2.62137        1.59734       -2.13867
C          3.94532       -0.70829       -0.95913
H          4.69482       -1.37632       -0.51173
H          4.23734       -0.60011       -2.01430
C          3.97931        0.68481       -0.27104
H          4.83984        1.26729       -0.62828
H          4.14167        0.55146        0.80880
C         -4.30820       -0.74182       -1.00658
H         -4.41751       -1.01076       -2.06657
H         -5.21100       -1.12741       -0.50811
C         -4.21025        0.80142       -0.86660
H         -4.53426        1.09244        0.14211
H         -4.90820        1.30260       -1.55415
C          2.34625       -2.22847        0.36266
H          1.27359       -2.41874        0.49893
H          2.64979       -1.66223        1.25346
C          2.73331        2.44652       -1.67911
H          3.06782        1.90418       -2.57331
H          1.71751        2.79162       -1.91284
C         -2.76802       -2.80531       -1.04004
H         -3.67418       -3.42239       -0.96420
H         -2.58344       -2.69803       -2.11664
C         -2.40083        2.47649       -0.17051
H         -3.19684        3.23304       -0.21425
H         -2.40238        2.11674        0.86695
C          3.09630       -3.55102        0.29105
H          2.91441       -4.17108        1.17187
H          4.17425       -3.39977        0.21797
H          2.79225       -4.12817       -0.58428
C          3.62900        3.64985       -1.41834
H          4.66462        3.35352       -1.24582
H          3.30077        4.19903       -0.53378
H          3.62777        4.34937       -2.25748
C         -1.60241       -3.51062       -0.36419
H         -1.79555       -3.66058        0.69975
H         -0.68682       -2.92428       -0.44035
H         -1.40257       -4.49017       -0.80438
C         -1.06422        3.12014       -0.50525
H         -0.83675        3.95899        0.15646
H         -0.24450        2.40786       -0.41444
H         -1.05251        3.49749       -1.52948
Cl        -1.82678       -0.16044        2.36414
Pd        -0.14993        0.00379        0.88298
