75
-122.81326490
P          1.91347       -0.52277       -0.16268
C          3.36924       -1.21055       -0.98334
C          4.33509       -1.78721       -0.18854
C          5.47098       -2.33023       -0.76169
C          5.63551       -2.29055       -2.13164
C          4.67061       -1.70486       -2.92599
C          3.53991       -1.16195       -2.34710
H          2.79868       -0.67461       -2.95491
H          4.80147       -1.66389       -3.99491
H          6.51943       -2.71328       -2.58074
H          6.22450       -2.78398       -0.13911
H          4.19441       -1.81325        0.88044
C          1.63747       -1.56791        1.27183
C          1.89561       -1.09610        2.53847
C          1.80279       -1.95062        3.62149
C          1.45780       -3.27334        3.42562
C          1.20101       -3.74224        2.15238
C          1.29537       -2.88548        1.07028
H          1.12067       -3.24073        0.06662
H          0.92880       -4.77370        2.00049
H          1.38151       -3.93966        4.26927
H          1.99871       -1.58379        4.61555
H          2.17247       -0.06312        2.67293
C          2.26132        1.16925        0.32684
C          3.41325        1.82873       -0.03147
C          3.58175        3.17088        0.28049
C          2.54493        3.84184        0.92829
C          1.38104        3.19387        1.27938
C          1.23955        1.82647        0.99452
O          0.07313        1.12349        1.33583
C         -1.13965        1.78161        1.07788
C         -1.30210        3.14880        1.35231
C         -2.50011        3.75987        1.05599
C         -3.55304        3.04850        0.48229
C         -3.37219        1.70184        0.20014
C         -2.18667        1.07520        0.50519
P         -1.80719       -0.63952        0.09412
C         -1.74502       -1.59260        1.62238
C         -1.41874       -0.98361        2.81232
C         -1.46682       -1.70138        3.99266
C         -1.83552       -3.03167        3.97275
C         -2.15243       -3.64401        2.77643
C         -2.10939       -2.91985        1.59860
H         -2.37155       -3.38086        0.65967
H         -2.43699       -4.68318        2.75965
H         -1.86874       -3.59466        4.89118
H         -1.20803       -1.22477        4.92380
H         -1.10938        0.04782        2.80922
C         -3.12907       -1.36085       -0.89652
C         -4.40070       -1.38713       -0.36988
C         -5.43505       -1.95323       -1.09295
C         -5.18603       -2.49838       -2.33653
C         -3.90625       -2.48463       -2.85415
C         -2.87445       -1.91847       -2.12846
H         -1.87150       -1.90774       -2.52270
H         -3.71062       -2.91314       -3.82339
H         -5.99089       -2.93846       -2.90242
H         -6.43193       -1.97085       -0.68408
H         -4.57629       -0.97754        0.61269
Pd        -0.05915       -0.07216       -1.42433
Cl        -1.74322        0.95518       -2.53316
Cl         1.39490        0.91685       -2.83300
H         -4.15487        1.15147       -0.29041
C         -4.82329        3.73164        0.12033
H         -4.78551        4.09684       -0.90672
H         -5.01333        4.58336        0.77468
H         -5.67238        3.05214        0.20517
H         -2.61655        4.80919        1.26229
S          0.04589        4.05102        2.07122
H          2.64566        4.88998        1.14841
C          4.81438        3.89388       -0.13046
H          4.17779        1.30237       -0.57634
H          5.03085        4.72038        0.54761
H          5.67879        3.22856       -0.12895
H          4.70524        4.30199       -1.13600
