171
-217.84753086
P         -1.60107        0.35236       -0.33096
P          1.62147       -0.47504       -0.25027
C         -0.83616        1.27128       -1.66931
C          0.89654       -1.44930       -1.57634
C         -0.05224        0.62120       -2.61530
C          0.57306        1.38727       -3.61784
C          0.36996        2.75718       -3.64811
C         -0.42452        3.37992       -2.70864
C         -1.02232        2.63098       -1.71386
C          1.07038       -2.81140       -1.53427
C          0.47189       -3.61936       -2.48061
C         -0.31602       -3.05278       -3.45974
C         -0.50762       -1.68245       -3.51872
C          0.12185       -0.85633       -2.56780
Cl         1.49991        0.17302        2.93334
Cl        -1.67769       -0.66005        2.80840
C         -1.37849       -1.11567       -4.58496
C          1.42595        0.74809       -4.65724
H         -0.57980        4.44548       -2.75135
H         -1.63924        3.10720       -0.96858
H          1.67567       -3.24664       -0.75570
H          0.61562       -4.68699       -2.44860
H          0.84389        3.33810       -4.42129
H         -0.79853       -3.67867       -4.19149
C         -3.96185       -3.24092       -1.72857
C         -2.98632       -3.41531       -0.75521
C         -2.27665       -2.29557       -0.34140
C         -2.51939       -1.07047       -0.91004
C         -3.46903       -0.91858       -1.89064
C         -4.22017       -2.00851       -2.31582
H         -4.55281       -4.08817       -2.02352
H         -1.53524       -2.36667        0.43518
H         -3.62064        0.05927       -2.31515
C         -4.29161        3.08176        2.10126
C         -4.87238        2.17493        1.22407
C         -4.02858        1.34586        0.49650
C         -2.66594        1.43935        0.63479
C         -2.11020        2.34497        1.50529
C         -2.91664        3.17112        2.27736
H         -4.93087        3.73719        2.66317
H         -4.43029        0.61476       -0.18124
H         -1.03892        2.39364        1.58953
C          4.59429       -2.85865        2.20991
C          5.05833       -1.83636        1.39072
C          4.12501       -1.13777        0.63845
C          2.79116       -1.45453        0.70172
C          2.34916       -2.46824        1.51513
C          3.24712       -3.19117        2.29085
H          5.29263       -3.40503        2.81546
H          4.44158       -0.32394        0.00997
H          1.29309       -2.67126        1.56078
C          3.71498        3.35520       -1.43007
C          2.75736        3.39434       -0.42376
C          2.10609        2.21089       -0.10460
C          2.40094        1.04932       -0.77362
C          3.35006        1.02530       -1.76571
C          4.03366        2.18564       -2.11030
H          4.24718        4.25290       -1.68229
H          1.38003        2.18823        0.68986
H          3.56366        0.08893       -2.25255
Pd        -0.05471       -0.12730        1.34262
C         -3.98496       -5.19995        0.68626
C         -2.74995       -4.80079       -0.13971
C         -1.51503       -4.80403        0.78228
C         -2.51705       -5.83207       -1.26025
H         -3.84757       -6.17796        1.14712
H         -4.16756       -4.47470        1.47904
H         -4.87710       -5.24471        0.06235
H         -1.65596       -4.13687        1.63234
H         -1.32916       -5.80278        1.17698
H         -0.62417       -4.48949        0.23922
H         -2.30017       -6.81610       -0.84496
H         -3.39182       -5.92975       -1.90164
H         -1.67510       -5.53709       -1.88538
C         -6.70049       -2.08255       -2.61970
C         -5.35659       -1.87096       -3.33967
C         -5.19783       -2.92783       -4.45010
C         -5.36339       -0.47596       -3.99530
H         -7.53552       -1.98468       -3.31319
H         -6.75238       -3.07310       -2.16878
H         -6.83245       -1.34774       -1.82619
H         -5.26360       -3.93934       -4.05190
H         -5.97870       -2.81972       -5.20273
H         -4.23551       -2.82713       -4.94975
H         -5.54428        0.30552       -3.25783
H         -4.41473       -0.27011       -4.49009
H         -6.15080       -0.40526       -4.74558
C         -7.01493        1.76343        2.45932
C         -6.40020        2.10640        1.08995
C         -6.83324        1.02749        0.07761
C         -6.93011        3.46887        0.60715
H         -6.78149        2.52644        3.20091
H         -8.09986        1.68516        2.39159
H         -6.62949        0.81213        2.82567
H         -6.49066        0.04025        0.38719
H         -7.91921        0.98834       -0.00627
H         -6.43365        1.23800       -0.91417
H         -6.69324        4.26037        1.31718
H         -6.48658        3.73588       -0.35193
H         -8.01270        3.44486        0.48364
C         -0.83798        3.87439        3.56109
C         -2.32526        4.17049        3.28202
C         -3.08286        4.07851        4.62138
C         -2.45430        5.59085        2.70728
H         -0.23333        4.02263        2.66885
H         -0.44731        4.53877        4.33161
H         -0.70145        2.84863        3.90354
H         -3.05626        3.05974        5.00760
H         -2.63363        4.73347        5.36774
H         -4.12610        4.37182        4.51459
H         -1.92545        5.67169        1.75773
H         -3.49867        5.84678        2.53044
H         -2.03678        6.32932        3.39147
C          7.01995       -1.57689       -0.14985
C          6.53756       -1.43484        1.30595
C          7.42159       -2.32089        2.20393
C          6.68912        0.02965        1.75914
H          8.07376       -1.31374       -0.23943
H          6.89652       -2.60215       -0.49812
H          6.45713       -0.92673       -0.81845
H          8.46821       -2.02640        2.12728
H          7.13052       -2.23257        3.25045
H          7.35127       -3.36854        1.91190
H          6.12163        0.70367        1.11826
H          6.32679        0.15572        2.77916
H          7.73288        0.34174        1.72942
C          1.26796       -4.53447        3.15723
C          2.78655       -4.29227        3.25617
C          3.11918       -3.86691        4.69769
C          3.51076       -5.60839        2.91820
H          0.98918       -4.83763        2.14879
H          0.95605       -5.32585        3.83855
H          0.70801       -3.63654        3.41815
H          2.62783       -2.92516        4.94181
H          2.78635       -4.61811        5.41366
H          4.19143       -3.72872        4.83155
H          3.30720       -5.90578        1.88960
H          4.58961       -5.50937        3.03106
H          3.18091       -6.41404        3.57393
C          3.29296        5.86126       -0.08324
C          2.42667        4.66884        0.36510
C          2.68539        4.41553        1.86271
C          0.94755        5.03188        0.14412
H          3.04716        6.75437        0.49118
H          4.35256        5.65415        0.06561
H          3.12938        6.09134       -1.13591
H          3.73018        4.15679        2.03313
H          2.45555        5.30131        2.45455
H          2.07662        3.59500        2.23945
H          0.29215        4.20951        0.42550
H          0.66601        5.90484        0.73264
H          0.76254        5.25959       -0.90483
C          5.32224        0.81967       -3.83102
C          5.16379        2.19310       -3.14956
C          6.48796        2.53896       -2.44341
C          4.86378        3.24588       -4.23305
H          5.58102        0.04856       -3.10588
H          4.40500        0.52219       -4.33718
H          6.11652        0.84777       -4.57685
H          6.44277        3.52391       -1.98002
H          6.70840        1.81212       -1.66165
H          7.31862        2.53885       -3.14895
H          5.63704        3.24522       -5.00110
H          3.90894        3.04337       -4.71640
H          4.81740        4.24903       -3.81129
H         -2.30405       -1.68500       -4.66843
H          0.85338        0.55308       -5.56484
H         -0.87913       -1.14634       -5.55431
H         -1.64832       -0.08001       -4.37455
H          1.83694       -0.19948       -4.30615
H          2.26286        1.39282       -4.92605
