72
-98.09160589
Fe        -0.00601        2.79951       -0.00213
P          1.84662       -0.04749        0.02669
P         -1.86887       -0.08026        0.00908
C          1.40144        1.59680        0.71127
C          0.40144        1.83887        1.73731
C          0.32601        3.27321        1.95453
C          1.32058        3.91626        1.11455
C          1.98340        2.87883        0.34247
C         -1.41269        1.55474       -0.69428
C         -2.00119        2.84165       -0.35820
C         -1.34567        3.86440       -1.15642
C         -0.35247        3.21180       -1.98999
C         -0.39826        1.78785       -1.70808
C          3.04574       -0.87256        1.17664
C          4.40603       -0.75970        0.45485
C          2.96390        0.17164       -1.43787
C          4.34746        0.20953       -0.75776
C         -3.13663       -0.82064       -1.11354
C         -4.40967       -0.09006       -0.65733
C         -2.96999        0.16095        1.48651
C         -4.39347        0.19889        0.87352
H         -0.21351        1.08019        2.21906
H         -0.33485        3.77706        2.66393
H          1.52976        4.98733        1.06755
H          2.78161        3.03174       -0.38695
H         -2.81109        3.00356        0.35635
H          0.21523        1.02001       -2.17757
Cl         1.52617       -3.10188       -0.38400
Cl        -1.61230       -3.01707        0.32009
Pd         0.01195       -1.47607       -0.00223
H          2.73369       -1.92047        1.26219
C          3.00598       -0.22045        2.55411
H          2.71555        1.13163       -1.90653
C          2.85472       -0.95942       -2.45928
H          4.73223       -1.75324        0.11468
H          5.17522       -0.42903        1.16617
H          4.56713        1.23310       -0.41895
H          5.13138       -0.03618       -1.48987
H         -1.57098        4.93311       -1.14199
H          0.30318        3.70190       -2.71335
H          3.35775        0.81609        2.46446
H          3.70583       -0.89504       -3.15142
H         -3.20863       -1.88929       -0.88240
C         -2.76483       -0.62019       -2.57713
H         -2.69872        1.12784        1.92694
C         -2.81898       -0.95018        2.52462
H         -5.30625       -0.66280       -0.94105
H         -4.48023        0.85731       -1.21129
H         -4.87746        1.16347        1.08681
H         -5.01332       -0.54929        1.38683
H         -2.68907        0.45621       -2.78052
H         -2.96586       -1.91490        2.02232
C          3.81764       -0.97211        3.59951
H          3.45947       -1.99720        3.71184
H          4.87200       -1.02956        3.32480
H          3.76159       -0.49552        4.58086
C          1.55764       -0.97090       -3.25164
H          0.69342       -1.09808       -2.60030
H          1.42150       -0.03886       -3.80317
H          1.53203       -1.78594       -3.97856
C         -3.75025       -1.27080       -3.53584
H         -3.82091       -2.34534       -3.35708
H         -4.75311       -0.85748       -3.41489
H         -3.46083       -1.12915       -4.57961
C         -1.49422       -0.94426        3.27079
H         -0.65053       -1.06509        2.59137
H         -1.34983       -0.00876        3.81422
H         -1.43502       -1.75524        4.00030
H          1.95977       -0.14248        2.88126
H          2.98659       -1.91411       -1.93454
H         -1.75440       -1.01690       -2.74692
H         -3.64445       -0.87497        3.24636
