111
-148.55584951
P         -1.69687        2.74558        0.33276
P         -0.45249       -0.14541        0.55292
C         -1.37135        2.02588        1.96812
C         -0.89591        0.73484        2.06193
C         -0.59638        4.19775        0.01900
C          0.36887        3.90261       -1.10945
C         -1.57001        2.76904        3.11411
H         -1.90630        3.78982        3.03419
C         -1.31438        2.20657        4.35290
H         -1.47316        2.78521        5.24821
C         -0.85036        0.90802        4.44350
H         -0.64598        0.47284        5.40788
C         -0.63026        0.17259        3.29273
H         -0.23542       -0.82999        3.34244
Pd        -1.58548        0.95804       -1.12871
Cl        -2.56437        2.28630       -2.64860
Cl        -1.38387       -0.85069       -2.44339
C         -1.58817        5.33979       -0.28098
C         -3.35564        3.55939        0.20604
H          1.01136        4.76060       -1.32092
H          1.00942        3.05035       -0.87418
H         -0.17277        3.65872       -2.02560
H         -1.66365        5.46145       -1.37023
H         -1.19521        6.29670        0.09440
H         -3.72487        3.32700       -0.80150
C         -3.00218        5.05445        0.30150
C         -4.33363        3.06196        1.24925
H         -0.06147        4.38364        0.95959
H         -3.03663        5.36168        1.35575
H         -3.76691        5.66121       -0.20723
H         -4.46921        1.98022        1.17988
H         -3.98133        3.28307        2.25707
H         -5.31198        3.53411        1.13454
C         -0.55926       -4.67976        0.93760
C         -1.70132       -3.99074        0.45447
C         -1.65484       -2.60771        0.38656
C         -0.50913       -1.92547        0.70033
C          0.63101       -2.59301        1.06511
C          0.65150       -3.97480        1.15733
O         -0.63558       -6.06776        1.22948
C         -2.97874       -4.71951        0.00818
H         -2.51440       -2.04038        0.07347
H          1.51420       -2.01314        1.27237
C          1.97166       -4.68311        1.49970
C          3.59679        1.38188       -0.85997
C          2.87621        0.44998       -1.65016
C          1.64855        0.01023       -1.18668
C          1.17548        0.39711        0.03831
C          1.91082        1.21998        0.84961
C          3.14432        1.70187        0.44600
O          4.74631        2.02538       -1.39095
C          3.37263       -0.04784       -3.01561
H          1.01378       -0.60745       -1.79827
H          1.49585        1.50105        1.80125
C          3.94479        2.59555        1.40567
C         -3.92633       -4.86895        1.20768
C         -3.70247       -3.91844       -1.09853
C         -2.65001       -6.10229       -0.58375
C          2.04895       -6.06483        0.82514
C          3.17890       -3.86419        0.98716
C          2.09002       -4.83071        3.02396
C         -1.04118       -6.35861        2.56091
H         -3.46424       -5.44570        2.00536
H         -4.18995       -3.89292        1.61440
H         -4.84730       -5.37376        0.91715
H         -4.53039       -4.49242       -1.51393
H         -4.11916       -2.98789       -0.71640
H         -3.01906       -3.67851       -1.91273
H         -1.94127       -6.00845       -1.40586
H         -2.20988       -6.75902        0.16251
H         -3.54760       -6.58992       -0.96321
H          3.01160       -6.53967        1.01306
H          1.27517       -6.73169        1.19745
H          1.92048       -5.97288       -0.25285
H          3.29459       -2.92965        1.53414
H          4.10615       -4.42322        1.11069
H          3.06758       -3.63071       -0.07141
H          3.02375       -5.32150        3.29738
H          2.06670       -3.85487        3.50853
H          1.27011       -5.42003        3.42748
H         -1.21454       -5.43603        3.11632
H         -1.95638       -6.95011        2.54342
H         -0.26772       -6.94311        3.05884
C          4.46542        3.23190       -2.09012
C          4.90986       -0.11069       -3.06058
C          2.85593       -1.47873       -3.29195
C          2.84400        0.88480       -4.11616
C          5.45933        2.41283        1.20000
C          3.55122        4.06351        1.18081
C          3.64183        2.22595        2.87590
H          5.35166        0.87614       -2.94912
H          5.29136       -0.73963       -2.25689
H          5.25761       -0.52223       -4.00778
H          3.30809       -1.88545       -4.19616
H          3.10104       -2.14553       -2.46573
H          1.77714       -1.49748       -3.43874
H          3.19802        1.90309       -3.97451
H          3.16750        0.54947       -5.10113
H          1.75443        0.90945       -4.10871
H          6.02655        2.99771        1.92364
H          5.73856        1.36614        1.31605
H          5.76645        2.73145        0.20707
H          2.48731        4.20930        1.36534
H          4.10263        4.72260        1.85081
H          3.75536        4.37533        0.15943
H          3.78733        1.15936        3.04535
H          2.62050        2.48187        3.15434
H          4.30213        2.76578        3.55426
H          3.39450        3.43736       -2.08146
H          4.99787        4.05898       -1.62085
H          4.81006        3.14709       -3.12056
