111
-148.56048091
P         -2.62654        2.15773        0.49173
P          0.01154        0.39615        0.42924
C         -1.67294        1.91022        2.01290
C         -0.51277        1.16757        1.97403
C         -3.38032        3.84581        0.41517
C         -2.66223        4.72002       -0.58975
C         -2.10597        2.44952        3.20740
H         -3.02635        3.00924        3.23753
C         -1.36454        2.25523        4.36003
H         -1.70101        2.67742        5.29287
C         -0.19573        1.51990        4.31652
H          0.38213        1.36907        5.21347
C          0.22893        0.97044        3.12022
H          1.13650        0.38955        3.07187
Pd        -1.23619        1.46585       -1.20683
Cl        -2.76410        2.12873       -2.70353
Cl         0.35840        0.86744       -2.66813
C         -4.85149        3.54624        0.06968
C         -4.14747        1.10871        0.41859
H         -1.60647        4.83538       -0.33284
H         -2.70970        4.28181       -1.58783
H         -3.10944        5.71529       -0.64519
H         -4.97425        3.59872       -1.02097
H         -5.50901        4.32833        0.47890
H         -4.16374        0.66691       -0.58642
C         -5.28352        2.13768        0.56962
C         -4.12341        0.03214        1.48283
H         -3.30297        4.27285        1.42288
H         -5.56862        2.19685        1.62905
H         -6.18494        1.79260        0.04061
H         -5.02671       -0.58148        1.45123
H         -3.26044       -0.62712        1.36275
H         -4.05821        0.47472        2.47851
C         -1.11594       -4.02110        0.34180
C         -0.27947       -3.51719        1.37264
C          0.04114       -2.16960        1.35563
C         -0.49393       -1.32412        0.41898
C         -1.40251       -1.78414       -0.49858
C         -1.76906       -3.11844       -0.53843
O         -1.23045       -5.42046        0.13890
C          0.28759       -4.37560        2.51584
H          0.73594       -1.76684        2.07306
H         -1.81590       -1.09364       -1.21194
C         -2.85987       -3.53317       -1.54025
C          4.49142        0.70617       -0.32566
C          3.78407       -0.46528       -0.69740
C          2.42042       -0.50766       -0.46260
C          1.77800        0.51970        0.17645
C          2.47268        1.61222        0.62483
C          3.84019        1.71663        0.42810
O          5.83802        0.88466       -0.74018
C          4.45686       -1.66648       -1.37944
H          1.83179       -1.34618       -0.79307
H          1.92649        2.38956        1.13052
C          4.58937        2.92572        1.01019
C          1.79480       -4.58769        2.29660
C          0.06961       -3.64567        3.85985
C         -0.41293       -5.74081        2.62798
C         -3.43332       -4.92788       -1.23569
C         -4.03675       -2.53514       -1.46360
C         -2.27895       -3.51337       -2.96383
C         -0.23330       -5.93186       -0.73012
H          2.32117       -3.63433        2.26301
H          2.22604       -5.18009        3.10313
H          1.98715       -5.10679        1.35953
H         -0.98534       -3.41439        4.00458
H          0.39598       -4.26444        4.69536
H          0.62843       -2.71271        3.90998
H         -0.06475       -6.29050        3.50215
H         -1.49151       -5.61337        2.71333
H         -0.21824       -6.35707        1.75354
H         -2.68055       -5.70135       -1.36815
H         -3.78916       -4.98069       -0.20736
H         -4.26698       -5.16295       -1.89698
H         -4.41657       -2.46589       -0.44483
H         -3.74302       -1.53733       -1.78449
H         -4.85725       -2.85225       -2.10668
H         -1.45531       -4.21757       -3.06303
H         -3.03872       -3.77959       -3.69812
H         -1.90110       -2.52300       -3.21615
H         -0.31886       -5.46819       -1.71136
H          0.75682       -5.72147       -0.32899
H         -0.36104       -7.01002       -0.82896
C          5.97277        1.53124       -1.99958
C          3.72795       -2.98012       -1.01216
C          4.39597       -1.48061       -2.90309
C          5.91760       -1.82198       -0.91967
C          3.90102        3.42248        2.30220
C          6.03470        2.55371        1.38848
C          4.58829        4.06780       -0.01697
H          3.64082       -3.08453        0.06880
H          2.72849       -3.02339       -1.44241
H          4.27472       -3.84439       -1.38849
H          4.85235       -2.32511       -3.41874
H          3.36266       -1.39695       -3.23911
H          4.91663       -0.57690       -3.21076
H          6.37355       -2.70999       -1.35674
H          6.51959       -0.96558       -1.21264
H          5.97074       -1.91203        0.16480
H          3.77081        2.60497        3.01093
H          4.49911        4.19363        2.78720
H          2.92415        3.85796        2.09756
H          6.54436        3.39264        1.86168
H          6.04555        1.71452        2.08320
H          6.61344        2.26933        0.51323
H          5.08584        3.77085       -0.93703
H          5.10116        4.94585        0.37475
H          3.56863        4.35693       -0.27040
H          6.49339        0.87357       -2.69539
H          4.99153        1.78424       -2.40334
H          6.56367        2.43954       -1.88267
