59
-75.81305776
Cl         1.63594        0.56080        2.31486
P          1.58244       -0.04325       -0.87628
P         -1.61184       -0.05079       -0.80843
C          0.58022        0.39489       -2.35989
H          0.32753        1.45739       -2.31952
H          1.18538        0.23089       -3.25714
C         -0.65859       -0.45182       -2.33780
H         -0.40134       -1.51421       -2.31882
H         -1.30016       -0.28038       -3.20826
C          2.48448       -1.62291       -1.26030
H          2.29041       -1.78785       -2.32883
C          3.04244        1.07445       -0.63085
H          3.16264        1.17672        0.45455
C         -2.94449       -1.29948       -0.49342
H         -3.30818       -1.10291        0.52282
C         -2.73826        1.37291       -1.20801
H         -2.25803        1.94052       -2.01441
C          3.96817       -1.26393       -1.06388
H          4.29280       -1.58059       -0.06554
H          4.59543       -1.83248       -1.76697
C          4.20940        0.26094       -1.21626
H          4.31681        0.51216       -2.28053
H          5.15849        0.55932       -0.74522
C         -4.00197       -0.86861       -1.52277
H         -3.76350       -1.34964       -2.48265
H         -4.99359       -1.25580       -1.24086
C         -4.03382        0.67883       -1.70205
H         -4.88556        1.08977       -1.14247
H         -4.23168        0.93836       -2.75262
C          1.99177       -2.82623       -0.45825
H          2.48308       -3.73329       -0.83709
H          0.92494       -2.97076       -0.67258
C          2.86702        2.45005       -1.26269
H          3.82993        2.97927       -1.24119
H          2.63138        2.32541       -2.32748
C         -2.49247       -2.75148       -0.60733
H         -3.37839       -3.39667       -0.68716
H         -1.95416       -2.88795       -1.55316
C         -2.98528        2.27758       -0.00192
H         -3.85045        2.92148       -0.21409
H         -3.29174        1.65264        0.84735
C          2.20768       -2.72675        1.04596
H          1.80948       -1.79603        1.44797
H          3.26579       -2.75860        1.30902
H          1.72310       -3.54618        1.58206
C          1.80119        3.28592       -0.57420
H          2.04068        3.44176        0.47942
H          0.83169        2.79035       -0.61015
H          1.68550        4.26903       -1.03611
C         -1.63730       -3.19562        0.56885
H         -0.76255       -2.55657        0.68560
H         -1.28485       -4.22363        0.45841
H         -2.19479       -3.13743        1.50563
C         -1.79622        3.14320        0.38154
H         -2.03169        3.81647        1.20896
H         -0.94714        2.53841        0.69625
H         -1.46766        3.75812       -0.45840
Cl        -1.62028        0.02749        2.37076
Pd         0.01634        0.09619        0.83867
