100
-131.97609582
C         -1.60828        3.86347       -1.39271
C         -2.33469        2.59110       -1.46651
C         -0.21474        3.58444       -1.41883
C         -0.00718        2.11410       -1.53519
C          1.16951        1.56264       -2.27000
C         -1.38754        1.51866       -1.57246
C         -1.77874        0.13038       -2.04797
C         -0.85338       -0.46961       -3.08828
Cl         1.00254       -0.38187        2.74492
Cl        -1.71475       -1.74961        2.24830
C          3.26316        0.59558       -3.86435
C          2.52109        1.68034       -4.28876
C          2.97869        0.00421       -2.64183
C          1.50066        2.15977       -3.50622
C          1.94713        0.46027       -1.85557
H         -3.41757        2.48466       -1.55572
H          0.58023        4.33243       -1.46598
H          0.09001       -0.77284       -2.63601
H         -1.28776       -1.35352       -3.56090
H         -0.63001        0.24870       -3.88052
H          4.07149        0.22135       -4.47100
H          2.74387        2.14928       -5.23353
H          3.59657       -0.80853       -2.29618
H          0.91453        2.99743       -3.84308
H         -2.06208        4.85746       -1.37366
P          1.84129       -0.27477       -0.20984
H         -2.77846        0.21289       -2.49170
P         -2.00654       -1.00364       -0.60833
H         -2.95257       -2.86342       -1.85690
C         -1.92936       -3.84833       -0.21273
C         -2.05480       -2.73230       -1.25554
C         -3.20828       -4.03825        0.60282
H         -3.31424        0.57973        0.55302
C         -4.84811       -0.40951       -0.57736
C         -3.54797       -0.43697        0.23937
H         -4.60394       -0.04837       -1.59092
C         -5.48843       -1.79132       -0.70713
H          3.56669       -1.91813       -0.56796
H          2.71715        0.63038        1.85629
C          3.64139        3.18471        1.34533
C          2.76494        2.27656        0.46391
C          2.98021        0.79613        0.80620
C          4.45981        0.42723        0.61779
C          5.37012        1.32727        1.47964
C          5.12903        2.81988        1.17970
H          3.34947        3.06107        2.39556
H          3.46564        4.24430        1.11247
H          3.03212        2.43341       -0.58855
H          1.70371        2.54161        0.53194
H          4.62922       -0.63140        0.85235
H          4.72080        0.54161       -0.44101
H          5.16836        1.13389        2.54057
H          6.42715        1.06596        1.33035
H          5.44374        3.03858        0.15151
H          5.75895        3.45326        1.82026
C          2.35014       -4.30435       -1.27918
C          1.75914       -2.88149       -1.22026
C          2.52920       -2.00430       -0.22577
C          2.53753       -2.64727        1.17022
C          3.13694       -4.06612        1.12368
C          2.37063       -4.94945        0.12005
H          3.37412       -4.25356       -1.66970
H          1.79612       -4.92955       -1.99306
H          0.71364       -2.93079       -0.89947
H          1.74104       -2.41662       -2.21531
H          3.06904       -2.00893        1.88856
H          1.50943       -2.70717        1.54463
H          4.19072       -4.00504        0.82491
H          3.14014       -4.52126        2.12399
H          1.34036       -5.08535        0.47213
H          2.80209       -5.95954        0.07872
H         -1.12153       -3.55759        0.48292
C         -1.52974       -5.16839       -0.87992
H         -3.69050       -1.00937        1.15432
C         -5.84348        0.57756        0.04239
H         -1.22013       -2.80553       -1.95355
H         -3.49932       -3.12393        1.11674
H         -3.08363       -4.81406        1.35991
H         -4.03546       -4.34127       -0.03912
H         -1.38712       -5.96167       -0.14444
H         -2.30521       -5.49710       -1.57249
H         -0.60484       -5.06917       -1.44912
H         -4.83927       -2.49675       -1.22132
H         -5.71720       -2.20332        0.27615
H         -6.42497       -1.74340       -1.26526
H         -6.10004        0.27550        1.05827
H         -5.43083        1.58631        0.09384
H         -6.77039        0.62539       -0.53128
Fe        -1.07379        2.63766        0.15257
C         -2.55597        2.91602        1.58623
C         -1.76929        4.12546        1.43249
C         -0.37878        3.79839        1.68839
C         -0.31042        2.38992        2.02135
C         -1.65087        1.84397        1.94753
H         -3.64195        2.84181        1.49756
H         -2.16063        5.11820        1.19920
H          0.45770        4.50156        1.68809
H          0.57293        1.84162        2.35016
H         -1.92310        0.81955        2.21236
Pd        -0.19523       -0.78920        0.86155
