72
-98.09227219
Fe        -0.00875        2.81293       -0.05167
P          1.81690       -0.08392       -0.04820
P         -1.87797       -0.07601       -0.08706
C          1.41628        1.57716        0.62979
C          0.45213        1.86892        1.67649
C          0.42877        3.30549        1.89110
C          1.38969        3.90941        0.98678
C          1.99687        2.84337        0.20765
C         -1.42943        1.55740       -0.78751
C         -2.02804        2.83686       -0.44640
C         -1.37854        3.87200       -1.23215
C         -0.36249        3.23673       -2.05011
C         -0.39275        1.81122       -1.77376
C          3.00040       -0.88485        1.12546
C          4.31090       -0.15800        0.78507
C          3.02403        0.14458       -1.44576
C          4.39480        0.21338       -0.72671
C         -3.33252       -0.74561       -1.01497
C         -4.51295       -0.24194       -0.16716
C         -2.66054        0.10567        1.58491
C         -4.15235       -0.20775        1.34256
H         -0.12169        1.13264        2.23785
H         -0.18461        3.83448        2.62425
H          1.62360        4.97391        0.91297
H          2.77294        2.96835       -0.55033
H         -2.85094        2.98349        0.25628
H          0.25475        1.05786       -2.22261
Cl         1.55515       -3.06088       -0.48325
Cl        -1.66521       -3.04766        0.21250
Pd        -0.03979       -1.51658       -0.10276
H          3.07320       -1.94443        0.85562
C          2.53610       -0.73878        2.56878
H          2.77413        1.09959       -1.92312
C          2.97397       -0.97678       -2.48044
H          5.17865       -0.76268        1.09094
H          4.36392        0.75645        1.39369
H          4.84350        1.21013       -0.85052
H          5.08835       -0.47382       -1.23111
H         -1.61554        4.93771       -1.21303
H          0.30220        3.73939       -2.75620
H          2.46157        0.32935        2.81181
H          3.83368       -0.87465       -3.15741
H         -3.26980       -1.83882       -0.96940
C         -3.36879       -0.28541       -2.46733
H         -2.52090        1.15346        1.87585
C         -2.01232       -0.82293        2.60814
H         -5.40531       -0.86147       -0.34675
H         -4.78240        0.76870       -0.50530
H         -4.78834        0.51144        1.87981
H         -4.38240       -1.18592        1.78610
H         -4.34088       -0.55191       -2.90513
H         -0.92017       -0.73811        2.54782
C          3.44858       -1.44329        3.56102
H          3.51745       -2.51048        3.34200
H          4.46228       -1.04060        3.52286
H          3.09332       -1.34053        4.58889
C          1.69098       -1.01790       -3.29216
H          1.52666       -0.07927       -3.82449
H          1.70308       -1.81830       -4.03550
H          0.82725       -1.18952       -2.65148
C         -2.24266       -0.87303       -3.30069
H         -2.27928       -0.53724       -4.33945
H         -1.27155       -0.58762       -2.89808
H         -2.27988       -1.96400       -3.30340
C         -2.47894       -0.55713        4.03114
H         -2.24402        0.46401        4.33755
H         -3.55937       -0.68013        4.12436
H         -2.00837       -1.23244        4.74933
H          1.51187       -1.12687        2.65630
H          3.12756       -1.93332       -1.96480
H         -3.33070        0.81157       -2.49274
H         -2.22532       -1.86202        2.32447
