171
-217.84104240
P         -1.55440        0.28090       -0.28743
P          1.69015       -0.59596       -0.21279
C         -0.81609        1.05378       -1.73532
C          0.95396       -1.65470       -1.47991
C         -0.08242        0.30316       -2.64471
C          0.50820        0.95335       -3.74622
C          0.32215        2.31633       -3.90817
C         -0.40795        3.04553       -2.99480
C         -0.97127        2.40777       -1.90762
C          1.18474       -3.00588       -1.37212
C          0.55799       -3.89564       -2.22192
C         -0.33156       -3.42576       -3.16349
C         -0.58592       -2.07097       -3.28931
C          0.09406       -1.16061       -2.45731
Cl         1.46531       -0.33387        3.01134
Cl        -1.68188       -1.08655        2.73844
C         -1.58365       -1.61195       -4.29462
C          1.31456        0.19490       -4.74233
H         -0.53612        4.10758       -3.12623
H         -1.53609        2.97365       -1.18655
H          1.86135       -3.37233       -0.61827
H          0.75087       -4.95266       -2.13641
H          0.75760        2.80717       -4.76180
H         -0.84321       -4.11506       -3.81396
C         -4.17184       -3.24863       -1.39721
C         -4.50197       -1.99532       -1.90058
C         -3.69483       -0.92130       -1.54665
C         -2.60724       -1.10205       -0.72873
C         -2.29181       -2.35008       -0.25104
C         -3.07056       -3.45251       -0.57576
H         -4.79086       -4.09221       -1.63770
H         -3.91785        0.06429       -1.91338
H         -1.42862       -2.46079        0.38071
C         -3.87345        3.57284        1.85263
C         -4.19693        3.24225        0.54230
C         -3.49238        2.20876       -0.06155
C         -2.49792        1.53965        0.61073
C         -2.19598        1.88731        1.90549
C         -2.87903        2.90435        2.55514
H         -4.40532        4.36967        2.33555
H         -3.69465        1.95496       -1.08747
H         -1.42165        1.36149        2.43225
C          5.01673       -2.76083        1.97644
C          3.70768       -3.20023        2.13659
C          2.70908       -2.52312        1.45115
C          3.01229       -1.45542        0.64441
C          4.30964       -1.03089        0.50058
C          5.34250       -1.67936        1.16616
H          5.80783       -3.26298        2.50081
H          1.67807       -2.81232        1.57243
H          4.50755       -0.18053       -0.12698
C          3.04079        3.57769       -1.32515
C          2.13379        3.42073       -0.28370
C          1.72572        2.13138        0.02629
C          2.19485        1.05628       -0.68947
C          3.09282        1.22726       -1.71348
C          3.54299        2.49980       -2.04542
H          3.38194        4.56349       -1.57931
H          1.04643        1.96545        0.84429
H          3.44304        0.35777       -2.24316
Pd        -0.03950       -0.41704        1.34849
C         -6.79343       -1.00300       -1.89450
C         -5.75875       -1.75439       -2.75042
C         -6.38037       -3.07943       -3.23321
C         -5.40807       -0.91065       -3.99186
H         -6.39548       -0.04952       -1.54982
H         -7.70227       -0.80414       -2.46214
H         -7.06369       -1.58751       -1.01527
H         -7.23588       -2.89132       -3.88187
H         -5.65668       -3.66636       -3.79874
H         -6.73366       -3.67936       -2.39497
H         -6.28961       -0.74995       -4.61232
H         -5.01917        0.06861       -3.71665
H         -4.65847       -1.41283       -4.60196
C         -2.59854       -5.84205       -1.18887
C         -2.76568       -4.85175       -0.02205
C         -3.93115       -5.30055        0.87753
C         -1.47062       -4.86200        0.81594
H         -3.50978       -5.91681       -1.78088
H         -1.79481       -5.52390       -1.85134
H         -2.35744       -6.83956       -0.82196
H         -4.07297       -4.59933        1.69970
H         -4.86440       -5.35300        0.31792
H         -3.73968       -6.28573        1.30239
H         -0.61619       -4.54134        0.22129
H         -1.55584       -4.20334        1.68003
H         -1.25685       -5.86423        1.18681
C         -6.00492        5.03491        0.59500
C         -5.25069        4.00765       -0.27096
C         -6.27670        3.01491       -0.84984
C         -4.54766        4.75287       -1.42056
H         -6.76873        5.54703        0.00988
H         -6.50155        4.54898        1.43470
H         -5.32756        5.79447        0.98476
H         -7.06351        3.53905       -1.39208
H         -5.80709        2.31856       -1.54302
H         -6.74342        2.43498       -0.05388
H         -5.26380        5.32136       -2.01357
H         -3.80334        5.44729       -1.03106
H         -4.03817        4.05779       -2.08733
C         -3.35800        4.40057        4.55943
C         -2.51720        3.23220        4.01104
C         -1.02922        3.62100        4.09386
C         -2.77362        1.98916        4.88382
H         -3.08529        4.62192        5.59123
H         -3.19860        5.30634        3.97457
H         -4.42092        4.16039        4.54423
H         -0.38710        2.80478        3.76531
H         -0.82235        4.48679        3.46577
H         -0.74818        3.87224        5.11633
H         -2.54146        2.19094        5.92922
H         -3.81786        1.68407        4.82135
H         -2.16126        1.14719        4.56291
C          4.55571       -5.01356        3.70872
C          3.31993       -4.36726        3.05469
C          2.58397       -5.44071        2.23054
C          2.39198       -3.84263        4.16676
H          4.26341       -5.84569        4.34912
H          5.24024       -5.40160        2.95462
H          5.09295       -4.29515        4.32756
H          2.31498       -6.29398        2.85288
H          1.66704       -5.04646        1.79414
H          3.21368       -5.80058        1.41712
H          2.10889       -4.64279        4.85023
H          2.88729       -3.06240        4.74410
H          1.47813       -3.41813        3.75257
C          7.65598       -2.38398        0.49732
C          6.80360       -1.22358        1.04288
C          7.32173       -0.80424        2.43065
C          6.94576       -0.02302        0.08563
H          7.28623       -2.70850       -0.47520
H          8.69640       -2.08159        0.37920
H          7.63318       -3.24244        1.16752
H          7.28945       -1.63609        3.13328
H          8.35269       -0.45542        2.37353
H          6.71394        0.00262        2.83971
H          7.98764        0.28656        0.00476
H          6.59905       -0.27750       -0.91562
H          6.37470        0.83405        0.44229
C          0.08270        4.64218        0.50844
C          1.62087        4.59553        0.56250
C          2.16384        5.94433        0.05388
C          2.07999        4.39841        2.01906
H         -0.30542        5.45945        1.11586
H         -0.26014        4.79547       -0.51392
H         -0.35597        3.71652        0.87778
H          1.86321        6.12274       -0.97847
H          1.78001        6.76723        0.65683
H          3.25181        5.97597        0.10867
H          3.16733        4.35492        2.07693
H          1.74009        5.21867        2.65098
H          1.68799        3.47086        2.43435
C          3.99479        3.62846       -4.24082
C          4.59442        2.73703       -3.13895
C          5.06207        1.41424       -3.77682
C          5.82140        3.43188       -2.51870
H          3.12601        3.15086       -4.69144
H          3.67814        4.59182       -3.84287
H          4.72263        3.81578       -5.03010
H          5.50951        0.75669       -3.03195
H          4.23235        0.88800       -4.24649
H          5.81167        1.59958       -4.54601
H          6.24210        2.82534       -1.71682
H          6.59912        3.59002       -3.26566
H          5.55924        4.40318       -2.10111
H         -1.88187       -0.57735       -4.11948
H          0.67940       -0.20981       -5.53098
H         -2.48390       -2.22628       -4.24714
H         -1.18266       -1.68406       -5.30643
H          1.84125       -0.63678       -4.27182
H          2.06108        0.83473       -5.21453
