111
-148.55300396
P         -2.32454        2.43959        0.31735
P         -0.12023        0.18227        0.55082
C         -1.84519        1.82390        1.94928
C         -0.90156        0.82525        2.04452
C         -2.12687        4.27439        0.21613
C         -0.95595        4.63636       -0.67159
C         -2.42291        2.34062        3.09084
H         -3.14948        3.13259        3.00711
C         -2.06388        1.83916        4.33011
H         -2.51552        2.23950        5.22306
C         -1.13153        0.82345        4.42294
H         -0.85633        0.42883        5.38716
C         -0.54866        0.31429        3.27616
H          0.17703       -0.48219        3.33131
Pd        -1.26060        1.11250       -1.24246
Cl        -2.31629        2.32179       -2.81218
Cl        -0.21813       -0.28925       -2.65451
C         -3.49798        4.74818       -0.30233
C         -4.13709        2.28667       -0.03498
H         -0.02300        4.21347       -0.29035
H         -1.10233        4.24741       -1.68098
H         -0.83240        5.71921       -0.74878
H         -3.44280        4.85592       -1.39432
H         -3.72757        5.75346        0.08225
H         -4.21048        1.93066       -1.07136
C         -4.62843        3.74258        0.05896
C         -4.82187        1.31930        0.90687
H         -1.96175        4.62273        1.24421
H         -4.97776        3.93383        1.08288
H         -5.50802        3.89184       -0.58563
H         -5.88762        1.23227        0.68338
H         -4.37966        0.32278        0.84039
H         -4.72926        1.64985        1.94227
C         -1.01526       -4.23201       -0.07698
C          0.29736       -3.74819       -0.31195
C          0.54608       -2.40284       -0.10282
C         -0.42849       -1.56948        0.37833
C         -1.67007       -2.05044        0.70170
C         -1.98208       -3.38945        0.53060
O         -1.37343       -5.54194       -0.49229
C          1.43091       -4.63781       -0.84483
H          1.50597       -1.98015       -0.33965
H         -2.40094       -1.35684        1.08110
C         -3.36664       -3.89096        0.96919
C          4.35412        1.03232        0.29937
C          3.66244        1.30785        1.50932
C          2.30568        1.03430        1.56676
C          1.62476        0.58840        0.46360
C          2.26573        0.45567       -0.74006
C          3.62009        0.70376       -0.87041
O          5.77229        1.00410        0.27897
C          4.33126        1.90167        2.76068
H          1.76516        1.16269        2.48772
H          1.68546        0.14355       -1.59078
C          4.23116        0.61496       -2.27878
C          1.28095       -6.08765       -0.35026
C          1.42321       -4.59663       -2.38066
C          2.80359       -4.13103       -0.34512
C         -3.31773       -5.37194        1.38671
C         -3.86703       -3.09567        2.19699
C         -4.36439       -3.69708       -0.18267
C         -1.89522       -5.60303       -1.81394
H          0.37025       -6.54433       -0.72944
H          2.11883       -6.70224       -0.67847
H          1.24233       -6.11961        0.73806
H          0.48367       -4.97133       -2.77980
H          1.55009       -3.57518       -2.73872
H          2.23004       -5.20234       -2.79235
H          3.06366       -3.16875       -0.78312
H          2.80661       -4.02598        0.73946
H          3.59555       -4.82885       -0.61616
H         -2.57978       -5.52434        2.17359
H         -4.28554       -5.70619        1.75969
H         -3.04937       -6.01212        0.55025
H         -4.78608       -3.52929        2.59057
H         -3.12385       -3.10584        2.99389
H         -4.08546       -2.05894        1.94631
H         -4.06145       -4.25658       -1.06462
H         -5.36108       -4.03213        0.10325
H         -4.42894       -2.64607       -0.46363
H         -2.90857       -6.00345       -1.79020
H         -1.90739       -4.60916       -2.26335
H         -1.27987       -6.26806       -2.41970
C          6.29897       -0.27617        0.58579
C          3.45828        3.05031        3.31333
C          4.46610        0.81045        3.83540
C          5.71691        2.49720        2.45611
C          4.30028       -0.85880       -2.71291
C          3.33977        1.39246       -3.27297
C          5.63536        1.23917       -2.34905
H          2.49208        2.69251        3.66510
H          3.94808        3.54006        4.15460
H          3.28012        3.80156        2.54442
H          4.91701        1.21135        4.74283
H          3.49159        0.39993        4.09812
H          5.08907       -0.01076        3.48616
H          5.65334        3.22444        1.64745
H          6.13114        2.99674        3.33158
H          6.42037        1.72450        2.15499
H          3.30812       -1.30894       -2.72087
H          4.71693       -0.95016       -3.71557
H          4.92403       -1.43956       -2.03588
H          3.20660        2.42295       -2.94506
H          3.78913        1.41061       -4.26544
H          2.35404        0.94125       -3.37261
H          6.34679        0.67799       -1.74793
H          5.61946        2.26335       -1.97801
H          6.00828        1.25360       -3.37289
H          7.38739       -0.23854        0.53634
H          5.99457       -0.57524        1.58742
H          5.93094       -1.01272       -0.12686
