111
-148.55480696
P         -1.66728        2.78769        0.55269
P         -0.56547       -0.17305        0.39905
C         -1.62454        1.75998        2.04895
C         -1.21625        0.44556        1.96376
C         -0.44355        4.16749        0.68671
C          0.65566        4.01039       -0.34268
C         -1.96637        2.29399        3.27504
H         -2.24381        3.33302        3.34391
C         -1.92513        1.50057        4.40859
H         -2.19604        1.91658        5.36524
C         -1.53100        0.17938        4.31695
H         -1.49334       -0.43638        5.20047
C         -1.16458       -0.34695        3.09139
H         -0.81884       -1.36513        3.00744
Pd        -1.45047        1.27378       -1.17990
Cl        -2.57103        2.64528       -2.54603
Cl        -0.96977       -0.32851       -2.68678
C         -1.30664        5.43224        0.50452
C         -3.23379        3.76129        0.37991
H          1.20877        3.08014       -0.19823
H          0.23841        3.98815       -1.35153
H          1.36909        4.83642       -0.29506
H         -1.21713        5.77125       -0.53664
H         -0.91135        6.25708        1.11638
H         -3.46170        3.77153       -0.69374
C         -2.80454        5.16876        0.83098
C         -4.38909        3.16013        1.15170
H         -0.04074        4.11777        1.70660
H         -2.96988        5.26235        1.91300
H         -3.44853        5.93191        0.36766
H         -5.30670        3.73445        1.00554
H         -4.58017        2.13120        0.83852
H         -4.18302        3.14288        2.22205
C         -0.73488       -4.69078       -0.12471
C          0.32460       -4.09808        0.61257
C          0.34258       -2.71864        0.73701
C         -0.67529       -1.94916        0.23678
C         -1.76447       -2.52604       -0.36087
C         -1.84454       -3.89943       -0.52533
O         -0.64573       -6.04767       -0.52875
C          1.45458       -4.89319        1.28826
H          1.17050       -2.22373        1.21703
H         -2.54891       -1.88402       -0.72468
C         -3.13209       -4.47500       -1.13894
C          3.76132        1.20731        0.02955
C          3.06950        1.37897        1.25586
C          1.76809        0.91560        1.34546
C          1.13897        0.36454        0.26037
C          1.76678        0.29467       -0.95429
C          3.06518        0.74422       -1.11604
O          5.15506        1.47086       -0.04208
C          3.71580        2.03922        2.48343
H          1.22424        0.98116        2.27099
H          1.20801       -0.09718       -1.78572
C          3.69195        0.72120       -2.51853
C          1.13323       -6.39406        1.39439
C          2.75915       -4.69949        0.49715
C          1.65642       -4.37303        2.72904
C         -3.25300       -5.99482       -0.93192
C         -4.35943       -3.82952       -0.45833
C         -3.16554       -4.15564       -2.64295
C          0.00490       -6.20682       -1.77866
H          1.90065       -6.92107        1.96088
H          0.17665       -6.54776        1.89259
H          1.07506       -6.85598        0.41178
H          3.58381       -5.23256        0.96958
H          2.66062       -5.06949       -0.52151
H          3.02881       -3.64511        0.44223
H          2.39956       -4.97015        3.25695
H          2.00169       -3.34057        2.74290
H          0.72378       -4.42431        3.29022
H         -2.47607       -6.52979       -1.47272
H         -3.15966       -6.24749        0.12369
H         -4.21477       -6.36443       -1.28683
H         -5.28450       -4.27663       -0.82140
H         -4.31887       -3.97110        0.62130
H         -4.41739       -2.76069       -0.65664
H         -4.08310       -4.52548       -3.09968
H         -3.11440       -3.08079       -2.81395
H         -2.32504       -4.61287       -3.16122
H          0.02287       -7.26442       -2.04268
H         -0.52630       -5.65177       -2.55000
H          1.02571       -5.83327       -1.71954
C          5.97220        0.33991        0.23207
C          4.42665        0.96616        3.32153
C          4.71442        3.13193        2.06076
C          2.64593        2.72441        3.36402
C          4.71184        1.86150       -2.68980
C          4.36997       -0.63765       -2.74905
C          2.60683        0.92348       -3.60148
H          4.88470        1.40322        4.20845
H          3.72114        0.20198        3.64712
H          5.20797        0.47259        2.74859
H          4.22688        3.87292        1.42799
H          5.12507        3.64512        2.92993
H          5.54785        2.71276        1.50238
H          3.11321        3.29357        4.16729
H          2.04290        3.41367        2.77420
H          1.98136        1.99936        3.83155
H          5.10711        1.88472       -3.70501
H          4.24711        2.82532       -2.48440
H          5.55380        1.74639       -2.01187
H          3.64706       -1.44834       -2.66018
H          4.81455       -0.68873       -3.74259
H          5.15632       -0.81462       -2.01902
H          2.01581        1.81575       -3.39635
H          1.93084        0.07192       -3.66069
H          3.05923        1.04074       -4.58583
H          5.35490       -0.52672        0.47228
H          6.59111        0.11578       -0.63651
H          6.63107        0.56113        1.07162
