171
-217.84472026
P         -1.64283        0.45663       -0.40070
P          1.60845       -0.35044       -0.33670
C         -0.88366        1.44827       -1.69008
C          0.90226       -1.26291       -1.70855
C         -0.04408        0.86481       -2.63271
C          0.62601        1.69896       -3.54850
C          0.40751        3.06593       -3.50592
C         -0.44918        3.62159       -2.57944
C         -1.08745        2.80657       -1.66567
C          1.10440       -2.62021       -1.75837
C          0.54593       -3.36670       -2.77746
C         -0.22713       -2.74421       -3.73475
C         -0.44425       -1.37638       -3.69945
C          0.14331       -0.61208       -2.67406
Cl         1.50183        0.57339        2.83978
Cl        -1.59236       -0.41817        2.80557
C         -1.26467       -0.72829       -4.75886
C          1.57581        1.14714       -4.55358
H         -0.61382        4.68653       -2.56119
H         -1.74653        3.23303       -0.92689
H          1.70250       -3.09637       -0.99775
H          0.71520       -4.42995       -2.82483
H          0.92308        3.69806       -4.20921
H         -0.67023       -3.32371       -4.52699
C         -3.82901       -3.31915       -1.59465
C         -2.83009       -3.38769       -0.63074
C         -2.15056       -2.21859       -0.31736
C         -2.45706       -1.04018       -0.95064
C         -3.44747       -0.98725       -1.90068
C         -4.16435       -2.13053       -2.23452
H         -4.37124       -4.21160       -1.84020
H         -1.39378       -2.22015        0.44855
H         -3.67987       -0.04185       -2.36185
C         -4.43716        2.77764        2.32012
C         -4.95095        1.73790        1.55340
C         -4.08230        1.06873        0.70192
C         -2.75910        1.42505        0.62700
C         -2.26817        2.45259        1.39348
C         -3.09755        3.14547        2.26495
H         -5.09372        3.30735        2.98287
H         -4.43775        0.24929        0.10194
H         -1.22243        2.70169        1.32859
C          4.20230       -3.04452        2.23436
C          2.82169       -3.17582        2.31206
C          2.04620       -2.36067        1.49759
C          2.63494       -1.43014        0.67650
C          4.00077       -1.29818        0.63245
C          4.81607       -2.11195        1.40821
H          4.81871       -3.68450        2.83838
H          0.97293       -2.43354        1.51325
H          4.42690       -0.54677       -0.00713
C          3.99279        3.27806       -1.59408
C          2.96206        3.43635       -0.67650
C          2.24398        2.30635       -0.30710
C          2.53539        1.08638       -0.86367
C          3.54159        0.94971       -1.78844
C          4.30074        2.05087       -2.16817
H          4.58666        4.13450       -1.85481
H          1.45774        2.36512        0.42516
H          3.73101       -0.02521       -2.20448
Pd        -0.03451        0.09758        1.26129
C         -2.72246       -4.44092        1.63774
C         -2.49277       -4.67616        0.13247
C         -1.02053       -5.04595       -0.12070
C         -3.37471       -5.85696       -0.31619
H         -2.48559       -5.33493        2.21421
H         -2.10354       -3.62706        2.01258
H         -3.76269       -4.17976        1.83086
H         -0.73545       -5.93214        0.44600
H         -0.85614       -5.25492       -1.17699
H         -0.35352       -4.23445        0.16523
H         -3.11963       -6.76093        0.23682
H         -4.42966       -5.64860       -0.13885
H         -3.23670       -6.06917       -1.37625
C         -6.35142       -1.00563       -2.72117
C         -5.32696       -2.03468       -3.23489
C         -6.04497       -3.38720       -3.40940
C         -4.79208       -1.58876       -4.60598
H         -6.71580       -1.28595       -1.73298
H         -5.91055       -0.01228       -2.64866
H         -7.20863       -0.93985       -3.39097
H         -6.87161       -3.29751       -4.11415
H         -5.36496       -4.14611       -3.79595
H         -6.45589       -3.73818       -2.46292
H         -4.07071       -2.31030       -4.98805
H         -5.60080       -1.50637       -5.33198
H         -4.30272       -0.61779       -4.54153
C         -7.08853        1.59870        0.25920
C         -6.42297        1.30576        1.61522
C         -7.19394        2.05868        2.71647
C         -6.50044       -0.20418        1.91583
H         -6.58660        1.06500       -0.54634
H         -8.13515        1.29478        0.26274
H         -7.04543        2.66344        0.03073
H         -7.21105        3.13094        2.52268
H         -8.22824        1.71832        2.76568
H         -6.74304        1.89007        3.69427
H         -7.53607       -0.53079        2.00806
H         -6.03777       -0.79368        1.12529
H         -5.98811       -0.43657        2.84918
C         -3.52294        4.78883        4.16319
C         -2.50767        4.27094        3.12629
C         -2.09737        5.43775        2.21155
C         -1.27287        3.74170        3.88343
H         -3.07506        5.55899        4.79109
H         -4.39357        5.22875        3.67739
H         -3.85976        3.98346        4.81570
H         -1.65125        6.24875        2.78687
H         -1.37210        5.11441        1.46680
H         -2.96292        5.83429        1.68114
H         -0.86123        4.50627        4.54183
H         -1.53704        2.87720        4.49203
H         -0.48278        3.43645        3.19921
C          2.50281       -5.61534        2.77126
C          2.19700       -4.19482        3.27568
C          0.66880       -4.01899        3.37203
C          2.78656       -4.00166        4.68628
H          2.06781       -6.36635        3.43047
H          2.09428       -5.76494        1.77185
H          3.57703       -5.79145        2.72306
H          0.40953       -3.00611        3.68028
H          0.19179       -4.22205        2.41537
H          0.24345       -4.70824        4.10125
H          2.32023       -4.68117        5.39945
H          3.85863       -4.19243        4.70242
H          2.62098       -2.98213        5.03404
C          6.95310       -3.33793        0.93835
C          6.34666       -1.99519        1.38509
C          6.84929       -1.64004        2.79643
C          6.81756       -0.89832        0.40957
H          6.58880       -3.61406       -0.05103
H          8.04048       -3.27916        0.89361
H          6.69097       -4.14001        1.62731
H          6.40842       -0.70313        3.13642
H          6.58664       -2.41372        3.51691
H          7.93327       -1.52757        2.80804
H          7.90510       -0.82680        0.40260
H          6.49503       -1.11501       -0.60858
H          6.42504        0.07681        0.69755
C          2.46796        5.84212       -1.20526
C          2.67226        4.81714       -0.07357
C          3.86139        5.24189        0.80535
C          1.39865        4.79560        0.79333
H          2.21667        6.82290       -0.80188
H          3.36681        5.95355       -1.81012
H          1.65798        5.53103       -1.86393
H          3.68309        6.21640        1.25957
H          4.02460        4.52018        1.60556
H          4.77885        5.30635        0.22118
H          1.17536        5.79002        1.17943
H          0.54051        4.46316        0.21005
H          1.51537        4.13041        1.64846
C          5.37256        2.98142       -4.25123
C          5.49338        1.93257       -3.12852
C          5.56432        0.53533       -3.77549
C          6.79214        2.17489       -2.33863
H          4.44274        2.85590       -4.80407
H          5.39148        3.99552       -3.85462
H          6.19704        2.88943       -4.95810
H          5.71783       -0.23938       -3.02476
H          4.64956        0.30896       -4.32250
H          6.39442        0.47701       -4.47938
H          7.66504        2.09073       -2.98574
H          6.80011        3.16841       -1.89137
H          6.89596        1.44663       -1.53494
H         -1.84419        0.10246       -4.35357
H          1.17547        1.24262       -5.56387
H         -1.96250       -1.43729       -5.20456
H         -0.63333       -0.34064       -5.55900
H          1.78849        0.09311       -4.37089
H          2.52401        1.68323       -4.51853
