111
-148.55033868
P         -1.69727        2.67915        0.31405
P         -0.50083       -0.24152        0.46857
C         -1.78320        1.75289        1.87607
C         -1.32053        0.45371        1.92019
C         -0.53926        4.11114        0.44362
C          0.56918        3.99318       -0.58062
C         -2.25163        2.35176        3.02826
H         -2.55620        3.38438        3.00585
C         -2.28794        1.63789        4.21342
H         -2.65868        2.10547        5.11098
C         -1.83772        0.33254        4.25065
H         -1.85677       -0.22034        5.17540
C         -1.33871       -0.25626        3.10306
H         -0.93800       -1.25744        3.12706
Pd        -1.21877        1.07905       -1.28702
Cl        -1.80634        2.61103       -2.81687
Cl        -0.62044       -0.55940       -2.70242
C         -1.46543        5.32815        0.23527
C         -3.25154        3.54126       -0.21739
H          0.15617        3.95961       -1.59071
H          1.25528        4.84195       -0.52966
H          1.15238        3.08139       -0.43351
H         -0.90881        6.12868       -0.27357
H         -1.75853        5.74569        1.20985
H         -3.59622        3.01257       -1.11672
C         -2.74414        4.95573       -0.56866
C         -4.33689        3.52449        0.83788
H         -0.12850        4.09407        1.46198
H         -3.54374        5.68910       -0.38837
H         -2.52464        5.01501       -1.64497
H         -4.54603        2.50768        1.17750
H         -4.04337        4.11534        1.70593
H         -5.26815        3.95173        0.45879
C         -0.92446       -4.74611       -0.08758
C          0.24219       -4.08261       -0.54406
C          0.33675       -2.71510       -0.34955
C         -0.64301       -2.01992        0.30935
C         -1.73228       -2.67112        0.82787
C         -1.87670       -4.04279        0.69409
O         -1.15660       -6.10082       -0.44559
C          1.36997       -4.80846       -1.29375
H          1.17680       -2.16592       -0.73518
H         -2.48052       -2.08756        1.33568
C         -3.06418       -4.73846        1.37886
C          3.73923        1.43781        0.39948
C          2.95258        1.53755        1.57525
C          1.69430        0.96018        1.57419
C          1.19172        0.35909        0.44960
C          1.90610        0.35842       -0.72008
C          3.16786        0.92084       -0.79099
O          5.10134        1.83992        0.42083
C          3.44731        2.25833        2.83910
H          1.07879        0.98538        2.45592
H          1.43514       -0.04851       -1.59716
C          3.88323        0.98276       -2.14980
C          1.06056       -4.79946       -2.79873
C          2.72410       -4.09820       -1.06729
C          1.53142       -6.25444       -0.79152
C         -3.44706       -4.00029        2.68227
C         -4.27548       -4.72863        0.43445
C         -2.71021       -6.18399        1.77378
C         -1.90704       -6.26193       -1.64290
H          1.85133       -5.29220       -3.36374
H          0.12554       -5.31174       -3.01187
H          0.96840       -3.77748       -3.16593
H          2.74935       -3.11991       -1.54436
H          2.92129       -3.96756       -0.00360
H          3.54219       -4.68054       -1.49065
H          1.70886       -6.26966        0.28328
H          0.64118       -6.84566       -0.99082
H          2.37061       -6.74783       -1.28124
H         -4.20102       -4.55916        3.23617
H         -2.57805       -3.87998        3.32868
H         -3.86388       -3.01458        2.48157
H         -4.05867       -5.25684       -0.49091
H         -5.13748       -5.20553        0.90027
H         -4.55359       -3.70737        0.17530
H         -1.82528       -6.20220        2.40905
H         -3.52888       -6.65315        2.31889
H         -2.50474       -6.79613        0.89935
H         -2.82290       -6.81308       -1.43034
H         -2.15750       -5.28916       -2.06807
H         -1.32509       -6.83502       -2.36452
C          6.01044        0.79566        0.74391
C          2.25863        2.81556        3.65557
C          4.22276        1.26762        3.72001
C          4.34115        3.45704        2.47297
C          2.85694        1.07198       -3.30315
C          4.77519        2.23369       -2.24726
C          4.72608       -0.28678       -2.34133
H          2.61238        3.43100        4.48241
H          1.61519        3.43420        3.03114
H          1.65550        2.01795        4.08696
H          3.58875        0.42846        4.00540
H          5.08646        0.86648        3.19554
H          4.57632        1.74928        4.63131
H          5.24637        3.13517        1.96381
H          3.81137        4.14261        1.81227
H          4.64206        4.00820        3.36355
H          3.35805        1.25015       -4.25417
H          2.28865        0.14928       -3.41045
H          2.15539        1.88912       -3.13679
H          5.23226        2.31352       -3.23322
H          4.19059        3.13592       -2.07014
H          5.57752        2.20702       -1.51415
H          4.09528       -1.17465       -2.31605
H          5.47128       -0.38814       -1.55607
H          5.24561       -0.26971       -3.29904
H          6.58820        1.07534        1.62473
H          5.47102       -0.13163        0.94111
H          6.70379        0.64493       -0.08325
