59
-75.79829028
Cl         1.38973        0.56350        2.40343
P          1.45385        0.02688       -0.83499
P         -1.73027       -0.20825       -0.79375
C          0.43856        0.33815       -2.34892
H          0.12765        1.38536       -2.35625
H          1.06441        0.17572       -3.23215
C         -0.75929       -0.56670       -2.32054
H         -0.45145       -1.61529       -2.29691
H         -1.40885       -0.43057       -3.19090
C          2.59119       -1.39788       -1.17449
H          2.33264       -1.72976       -2.18960
C          2.69932        1.35425       -0.48185
H          2.40752        1.82288        0.46632
C         -3.08710       -1.43182       -0.49143
H         -3.17293       -1.52475        0.59822
C         -2.75060        1.32580       -1.03540
H         -2.57388        1.65160       -2.06749
C          3.98990       -0.74971       -1.16321
H          4.72899       -1.46906       -0.78226
H          4.30642       -0.52664       -2.19293
C          4.01264        0.56083       -0.32909
H          4.86680        1.18629       -0.62351
H          4.17936        0.31966        0.73078
C         -4.31932       -0.70816       -1.05749
H         -4.40697       -0.94136       -2.12791
H         -5.23919       -1.09564       -0.59281
C         -4.20048        0.82740       -0.86458
H         -4.54480        1.09030        0.14507
H         -4.87355        1.36216       -1.55154
C          2.42185       -2.56322       -0.20059
H          3.00708       -3.41979       -0.56384
H          1.37724       -2.89750       -0.22838
C          2.73147        2.40652       -1.58591
H          3.04803        1.92659       -2.52135
H          1.71033        2.76272       -1.77448
C         -2.81564       -2.79879       -1.10628
H         -3.73427       -3.40073       -1.06820
H         -2.59877       -2.67230       -2.17478
C         -2.38222        2.44115       -0.05898
H         -3.17935        3.19769       -0.06942
H         -2.38807        2.03177        0.95982
C          2.82130       -2.25361        1.23289
H          3.88221       -2.01219        1.31257
H          2.63075       -3.09619        1.90166
H          2.26869       -1.40029        1.62254
C          3.62898        3.59385       -1.26490
H          3.60579        4.34847       -2.05453
H          4.66940        3.29194       -1.13687
H          3.31940        4.08038       -0.33795
C         -1.68172       -3.53496       -0.41149
H         -0.76691       -2.94294       -0.42283
H         -1.46197       -4.49543       -0.88309
H         -1.92000       -3.72809        0.63627
C         -1.04645        3.10508       -0.35619
H         -1.03195        3.53216       -1.36067
H         -0.82544        3.91159        0.34664
H         -0.22344        2.39356       -0.29638
Cl        -1.79368       -0.30617        2.34447
Pd        -0.12642       -0.03725        0.86576
