105
-153.06745157
Cl         0.28689        2.92465        2.60655
Pd        -0.16979        1.77842        0.71793
P         -0.75268        0.49948       -1.18020
N          0.40331       -0.75622       -1.60668
C          0.48685       -2.14450       -1.41331
C         -0.03741       -2.82507       -0.28117
C          0.27072       -4.18823       -0.08617
C         -0.11013       -4.85485        1.21531
C          0.74502       -6.08916        1.53454
C          0.76803       -7.04078        0.33469
C          1.35542       -6.35087       -0.90848
C          1.00157       -4.88851       -1.04954
C          1.47471       -4.20954       -2.16542
C          1.24600       -2.86855       -2.33099
H          1.65233       -2.34974       -3.18208
H          2.05536       -4.74890       -2.89475
H          2.44856       -6.43776       -0.89093
H          1.32636       -7.95647        0.57516
H          1.76913       -5.77099        1.76650
H         -0.03727       -4.12315        2.02978
C         -0.71434       -2.07594        0.80547
C          0.06431       -1.18231        1.58174
C         -0.52716       -0.53428        2.66501
C         -1.84396       -0.75510        2.97619
C         -2.62697       -1.63056        2.23095
C         -4.06008       -1.84492        2.66530
C         -4.88840       -2.80178        1.78440
C         -4.01365       -3.88859        1.14942
C         -2.90284       -3.23506        0.31849
C         -2.06086       -2.29629        1.14084
H         -2.28005       -3.98695       -0.17818
H         -4.61317       -4.57897        0.53946
H         -5.38077       -2.23103        0.98764
H         -4.55300       -0.86622        2.72293
H         -2.28944       -0.24129        3.81111
H          0.06034        0.16244        3.23583
N          1.38335       -0.92506        1.20649
P          1.90090        0.75069        1.08411
C          2.73139        1.01719       -0.48219
C          2.41552        2.12392       -1.23501
C          2.90964        2.24261       -2.52010
C          3.71203        1.24920       -3.06294
C          4.04416        0.15427       -2.27689
C          3.55478        0.03838       -0.98826
H          3.78554       -0.82749       -0.38767
H          4.68013       -0.61318       -2.68420
C          4.23540        1.37535       -4.45112
H          2.65563        3.10108       -3.11832
H          1.76688        2.88346       -0.82823
C          2.87248        1.29088        2.48104
C          2.95407        0.47569        3.58370
C          3.68269        0.88411        4.68664
C          4.33587        2.10982        4.68487
C          4.23258        2.92126        3.56242
C          3.50366        2.51095        2.46056
H          3.41590        3.13948        1.58843
H          4.72217        3.88010        3.55899
C          5.09640        2.56747        5.88061
H          3.74474        0.25354        5.55700
H          2.44806       -0.47652        3.57252
H          1.66294       -1.34862        0.32888
H          1.25706       -0.26035       -1.83638
C         -0.62298        1.71852       -2.49355
C         -1.06533        3.00783       -2.32061
C         -0.92953        3.92736       -3.34271
C         -0.36055        3.55781       -4.55403
C          0.07363        2.24913       -4.71536
C         -0.06307        1.33239       -3.68845
H          0.27460        0.31608       -3.81076
H          0.52541        1.95379       -5.64688
C         -0.18078        4.55617       -5.64407
H         -1.26381        4.94138       -3.20445
H         -1.51585        3.28772       -1.38355
C         -2.40317       -0.17794       -1.34362
C         -2.59643       -1.08690       -2.35758
C         -3.86331       -1.58697       -2.60623
C         -4.94573       -1.17509       -1.84041
C         -4.73122       -0.25400       -0.82361
C         -3.46665        0.24890       -0.58559
H         -3.30935        0.99894        0.16930
H         -5.56330        0.07555       -0.22518
C         -6.29989       -1.74581       -2.07982
H         -4.01627       -2.30682       -3.39195
H         -1.75122       -1.40145       -2.94962
Cl        -2.19335        2.75771        0.67038
H          1.03705       -6.87558       -1.81828
H          0.38096       -6.60049        2.43693
H         -0.25606       -7.37095        0.11892
H         -1.16387       -5.14996        1.17665
H         -3.56357       -4.50117        1.94038
H         -3.35618       -2.66359       -0.49517
H         -4.04609       -2.22187        3.69512
H         -5.70637       -3.25301        2.36319
H          4.37524        0.39533       -4.90950
H          3.54586        1.93914       -5.08122
H          5.19647        1.89125       -4.45770
H          4.46717        3.17973        6.52798
H          5.45863        1.72124        6.46602
H          5.96257        3.16398        5.59072
H         -0.21817        4.07973       -6.62472
H         -0.96336        5.31563       -5.61546
H          0.78188        5.06088       -5.55147
H         -6.49112       -1.86589       -3.14708
H         -6.39631       -2.72480       -1.60814
H         -7.07937       -1.09927       -1.67446
