105
-153.06079508
Cl         0.54530        3.71367        1.45319
Pd        -0.10287        1.97645        0.18074
P         -0.73697        0.23032       -1.30789
N          0.14561       -1.18185       -1.91911
C          0.23258       -2.50399       -1.49366
C         -0.11023       -2.96388       -0.19234
C          0.19901       -4.29355        0.17137
C          0.05296       -4.72576        1.61259
C         -0.10625       -6.24337        1.77908
C          1.01341       -6.97934        1.03728
C          1.00236       -6.63423       -0.46153
C          0.71825       -5.18302       -0.77277
C          0.97693       -4.72804       -2.05838
C          0.76084       -3.41963       -2.40331
H          1.00700       -3.07934       -3.39435
H          1.37516       -5.41649       -2.78462
H          1.96175       -6.90938       -0.91801
H          1.98096       -6.69505        1.46992
H         -0.12700       -6.52439        2.84159
H          0.94080       -4.38782        2.16051
C         -0.70554       -2.07534        0.84197
C          0.11068       -1.07453        1.43081
C         -0.36016       -0.37336        2.54125
C         -1.61083       -0.62704        3.04166
C         -2.44646       -1.57523        2.45826
C         -3.80356       -1.80236        3.08334
C         -4.73221       -2.75408        2.30688
C         -3.94764       -3.89286        1.64740
C         -2.88785       -3.32522        0.69385
C         -1.99633       -2.30230        1.35243
H         -2.28469       -4.13377        0.26502
H         -4.62188       -4.58337        1.12118
H         -5.26654       -2.19204        1.53167
H         -4.29103       -0.82832        3.21750
H         -1.96636       -0.07726        3.89660
H          0.26006        0.38557        2.98175
N          1.27766       -0.71963        0.76016
P          1.82271        0.90215        0.97510
C          2.92704        1.36761       -0.35268
C          3.45083        0.40301       -1.17978
C          4.21255        0.77865       -2.27147
C          4.44071        2.12088       -2.54571
C          3.90668        3.07873       -1.69366
C          3.14420        2.70144       -0.60366
H          2.67696        3.43741        0.03173
H          4.07844        4.12177       -1.89738
C          5.26595        2.52387       -3.71781
H          4.62802        0.02948       -2.92357
H          3.25157       -0.63701       -0.97784
C          2.61077        1.01917        2.57984
C          3.33331       -0.06301        3.02247
C          3.95265       -0.01635        4.25927
C          3.84428        1.11256        5.06076
C          3.11511        2.19712        4.59169
C          2.49828        2.14666        3.35648
H          1.92084        2.97908        2.99239
H          3.03330        3.08119        5.20070
C          4.53012        1.17445        6.38122
H          4.52380       -0.85908        4.60945
H          3.39980       -0.94170        2.39992
H          1.13714       -0.83802       -0.24226
H          0.37030       -0.99642       -2.88876
C         -0.61250        1.38087       -2.68656
C         -1.71827        1.84879       -3.35477
C         -1.56131        2.74127       -4.39898
C         -0.29681        3.17410       -4.77633
C          0.80795        2.68145       -4.09544
C          0.64811        1.78892       -3.05152
H          1.50330        1.42057       -2.50851
H          1.79411        3.00429       -4.38222
C         -0.12659        4.12059       -5.91322
H         -2.42377        3.11166       -4.92632
H         -2.69972        1.52420       -3.05101
C         -2.46176       -0.23191       -1.16035
C         -2.98115       -1.06025       -2.12656
C         -4.31902       -1.41209       -2.08614
C         -5.14309       -0.93560       -1.07614
C         -4.59888       -0.10108       -0.10873
C         -3.26191        0.24722       -0.15113
H         -2.83936        0.89409        0.60021
H         -5.22813        0.27734        0.67850
C         -6.57856       -1.32920       -1.03230
H         -4.73077       -2.06302       -2.83834
H         -2.33472       -1.43037       -2.90689
Cl        -2.04200        2.97288       -0.35965
H          0.25096       -7.24787       -0.97290
H         -1.07717       -6.55273        1.37207
H          0.93170       -8.06491        1.18927
H         -0.78689       -4.20542        2.08498
H         -3.45512       -4.49265        2.42295
H         -3.38126       -2.85380       -0.16223
H         -3.64964       -2.19111        4.09717
H         -5.51565       -3.15530        2.96511
H          6.32429        2.55208       -3.45522
H          5.14221        1.82333       -4.54491
H          4.98181        3.51354       -4.07832
H          3.98148        1.80708        7.08040
H          4.61389        0.18301        6.82854
H          5.53624        1.58258        6.27615
H         -0.03686        3.58073       -6.85685
H         -0.97813        4.79786       -5.99192
H          0.76944        4.72997       -5.78721
H         -6.68125       -2.40789       -0.90511
H         -7.09982       -0.84458       -0.20567
H         -7.08641       -1.04889       -1.95614
