111
-148.54913265
P         -2.33809        2.27035        0.73691
P          0.13523        0.27959        0.46718
C         -1.29839        1.91540        2.17681
C         -0.24978        1.02939        2.06240
C         -2.56381        4.09394        0.52949
C         -2.14474        4.52791       -0.85797
C         -1.56291        2.51691        3.39050
H         -2.36907        3.22815        3.46722
C         -0.78967        2.20819        4.49624
H         -0.99731        2.67577        5.44485
C          0.24218        1.29621        4.38644
H          0.83896        1.04827        5.24875
C          0.51153        0.70373        3.16575
H          1.30976       -0.01534        3.06536
Pd        -1.52269        0.97723       -1.00285
Cl        -3.30825        1.71916       -2.14581
Cl        -0.69490       -0.39587       -2.57282
C         -4.06310        4.30219        0.82850
C         -4.10422        1.74145        0.94002
H         -2.26108        5.60585       -0.99387
H         -1.10116        4.27162       -1.05666
H         -2.75457        4.03254       -1.61540
H         -4.44457        5.13788        0.22391
H         -4.19698        4.61029        1.87585
H         -4.27286        0.94287        0.20484
C         -4.89040        3.01335        0.56251
C         -4.39096        1.23725        2.33898
H         -1.93554        4.57835        1.28949
H         -5.83899        3.03862        1.11843
H         -5.17023        2.97558       -0.50059
H         -3.71093        0.43046        2.62038
H         -4.27121        2.03786        3.07010
H         -5.41395        0.86426        2.42842
C         -0.98993       -4.12962        0.59401
C         -1.92310       -3.12954        0.97608
C         -1.50834       -1.80778        0.95869
C         -0.25791       -1.46406        0.51305
C          0.59900       -2.41267        0.02052
C          0.24643       -3.75194        0.00482
O         -1.25635       -5.49434        0.87483
C         -3.37877       -3.42254        1.37545
H         -2.16662       -1.02244        1.29138
H          1.55233       -2.09549       -0.36462
C          1.19595       -4.73588       -0.69903
C          4.39668        1.14110       -0.93903
C          3.46447        0.53857       -1.82063
C          2.18689        0.28699       -1.35184
C          1.80490        0.64866       -0.08636
C          2.67436        1.32427        0.73102
C          3.96362        1.62254        0.32254
O          5.76120        1.24413       -1.32144
C          3.83319        0.16147       -3.26454
H          1.45168       -0.17944       -1.98212
H          2.32871        1.62816        1.70214
C          4.86547        2.45008        1.25310
C         -3.80853       -4.85503        1.01476
C         -3.54710       -3.20203        2.88755
C         -4.31968       -2.46372        0.61295
C          2.46956       -4.90980        0.14427
C          0.54887       -6.11099       -0.93801
C          1.57349       -4.16769       -2.08445
C         -0.78170       -5.89086        2.15030
H         -3.25106       -5.59006        1.59067
H         -4.86773       -5.01079        1.21812
H         -3.63147       -5.05440       -0.04156
H         -2.90900       -3.87714        3.45505
H         -3.28188       -2.18235        3.16496
H         -4.57812       -3.37614        3.19432
H         -4.15889       -1.42699        0.90069
H         -4.15994       -2.54238       -0.46205
H         -5.36397       -2.69868        0.81680
H          3.16898       -5.58927       -0.34214
H          2.97524       -3.95566        0.28943
H          2.23532       -5.31533        1.12713
H          1.20202       -6.75618       -1.52509
H          0.34317       -6.61807        0.00177
H         -0.39424       -6.00373       -1.47275
H          2.12236       -3.23231       -1.99911
H          2.20205       -4.86687       -2.63528
H          0.67956       -3.97726       -2.67772
H         -1.27092       -5.30620        2.92811
H         -0.99990       -6.94809        2.30259
H          0.29393       -5.73145        2.21396
C          6.57477        0.16237       -0.88520
C          4.75961        1.22564       -3.88017
C          4.52279       -1.21082       -3.28071
C          2.57308        0.08194       -4.15572
C          5.61196        1.50715        2.20904
C          5.86703        3.29889        0.44875
C          4.02185        3.43540        2.09496
H          4.29137        2.20876       -3.84500
H          5.70336        1.28581       -3.34288
H          4.98549        0.99412       -4.92073
H          3.87755       -1.97226       -2.84521
H          4.76323       -1.51447       -4.29928
H          5.44759       -1.19487       -2.71073
H          1.98916        0.99938       -4.08760
H          2.84649       -0.06278       -5.20056
H          1.93443       -0.75402       -3.87357
H          6.26148        2.06689        2.88155
H          4.90783        0.93832        2.81593
H          6.22592        0.79489        1.66344
H          5.34334        3.94232       -0.25748
H          6.46209        3.93145        1.10696
H          6.55449        2.67559       -0.11683
H          3.39657        2.91619        2.81976
H          3.37793        4.03859        1.45543
H          4.66483        4.11290        2.65639
H          7.11610       -0.24957       -1.73685
H          7.30720        0.51871       -0.16158
H          5.96164       -0.61639       -0.42987
