115
-277.93661947
P         -1.47342        0.61801        0.20892
P          2.11287        0.14946       -0.05097
C         -2.47240        2.10862        0.08500
C         -3.76098        2.07434        0.57606
H         -4.20763        1.12911        0.84340
C         -4.41404        3.26069        0.85207
H         -5.36715        3.25369        1.35581
C         -3.78253        4.47499        0.62288
C         -2.54625        4.48971       -0.00128
H         -2.06245        5.44111       -0.15980
C         -1.88323        3.30731       -0.25572
H         -0.88028        3.32710       -0.64950
C         -2.46895       -0.73090       -0.46199
C         -2.78332       -1.82528        0.31193
H         -2.45700       -1.87369        1.33714
C         -3.51471       -2.86287       -0.22716
H         -3.75841       -3.73432        0.36148
C         -3.94543       -2.80344       -1.53923
C         -3.63946       -1.69617       -2.30406
H         -3.99047       -1.65882       -3.32331
C         -2.89613       -0.66695       -1.76692
H         -2.63883        0.18776       -2.37007
C         -1.12939        0.35208        1.99473
C         -0.39825       -0.80078        2.19487
H         -0.07767       -1.37151        1.34558
C          0.09984       -1.15486        3.44587
C         -0.35748       -0.44096        4.54579
H         -0.02540       -0.71691        5.53267
C         -1.09803        0.70938        4.36523
H         -1.33842        1.31915        5.21981
C         -1.39020        1.19275        3.08890
C          1.94647        0.85785        1.62590
C          1.24260        2.04970        1.63531
H          0.82628        2.42418        0.71555
C          0.91723        2.69237        2.83024
C          1.52874        2.23732        3.99280
H          1.32659        2.73760        4.92513
C          2.24962        1.06023        3.99027
H          2.60773        0.65787        4.92262
C          2.36906        0.29012        2.83419
C         -1.63741        2.68047        2.97509
H         -2.27084        3.00425        3.80973
H         -2.25401        2.88361        2.10455
C         -0.32382        3.54288        2.92147
H         -0.35478        4.24389        2.08091
H         -0.25382        4.18294        3.80810
C          1.35905       -1.97723        3.52877
H          1.21344       -2.90869        2.97167
H          1.50717       -2.29229        4.56725
C          2.61766       -1.19035        3.00568
H          3.46938       -1.33822        3.67843
H          2.94550       -1.59501        2.05094
C          1.94247       -1.64363       -0.21877
C          3.01960       -2.46183        0.04704
C          0.70315       -2.19352       -0.46478
C          2.81945       -3.81571        0.23260
C          0.50332       -3.54440       -0.28938
C          1.54696       -4.35301        0.12950
C          3.64538        0.71329       -0.80343
C          4.27996       -0.02276       -1.77694
C          4.17878        1.90691       -0.37714
C          5.46263        0.43503       -2.32220
H          3.84432       -0.94785       -2.11849
C          5.36103        2.36305       -0.92127
H          3.67541        2.47451        0.38896
C          6.00906        1.63040       -1.89760
H          5.98432       -0.13070       -3.07800
H          5.80351        3.28706       -0.58560
Pd         0.28931        0.87884       -1.34339
Cl        -1.31120        1.79668       -2.63064
Cl         1.80197        0.93592       -3.00168
H         -0.48456       -3.96733       -0.37433
H         -0.13714       -1.56170       -0.69419
H          3.62169       -4.45409        0.56891
H          3.99832       -2.03239        0.19263
C         -5.74032        5.77185        1.58553
C         -4.20254        5.72697        1.35281
C         -3.38654        5.73953        2.68573
F         -6.33663        5.59190        0.39769
F         -6.09953        4.79059        2.42456
F         -6.07275        6.96878        2.09346
F         -3.85898        6.80790        0.64829
F         -3.61864        4.60172        3.35346
F         -2.08694        5.79332        2.36168
F         -3.73198        6.80569        3.41964
C         -4.07868       -5.28456       -1.87642
C         -4.77002       -3.91467       -2.13627
C         -6.20714       -3.85103       -1.54519
F         -4.69068       -6.23243       -2.60336
F         -2.79634       -5.16474       -2.25448
F         -4.14496       -5.57736       -0.56940
F         -4.86570       -3.75501       -3.45922
F         -6.73991       -2.67510       -1.91053
F         -6.93706       -4.86419       -2.03575
F         -6.13838       -3.92034       -0.20762
C          7.32874        3.59841       -2.75282
C          7.34555        2.07319       -2.43677
C          8.44199        1.69485       -1.39985
F          6.26295        3.83940       -3.53088
F          7.22305        4.29348       -1.61178
F          8.45725        3.92682       -3.40037
F          7.61825        1.42679       -3.57356
F          8.42864        0.35949       -1.27226
F          9.63907        2.10763       -1.84217
F          8.14935        2.26387       -0.22121
C          0.94232       -5.31172        2.29824
C          1.26161       -5.66678        0.81243
C          0.09647       -6.43084        0.12046
F          0.62231       -6.42300        2.97463
F          2.03815       -4.74237        2.81818
F         -0.06120       -4.42366        2.32874
F          2.34450       -6.44740        0.79114
F         -1.04791       -5.75225        0.28819
F          0.38832       -6.51872       -1.18613
F         -0.00206       -7.65765        0.65643
