171
-217.83835131
P         -1.67521        0.65573        0.28211
P          1.53302       -0.16493       -0.32667
C         -0.98222        1.78150       -0.94835
C          0.63173       -0.88145       -1.71075
C         -0.34311        1.37157       -2.11252
C          0.24180        2.34859       -2.93968
C          0.13958        3.68506       -2.59231
C         -0.50063        4.07278       -1.43544
C         -1.05102        3.11257       -0.60903
C          0.80463       -2.20406       -2.03644
C          0.11497       -2.75432       -3.09843
C         -0.75388       -1.97048       -3.82861
C         -0.95164       -0.63611       -3.51211
C         -0.22497       -0.07159       -2.44593
Cl         2.20490        1.31489        2.49241
Cl        -0.87560        0.56226        3.45323
C         -1.90870        0.18140       -4.30732
C          0.98287        1.98233       -4.17667
H         -0.56403        5.11586       -1.17176
H         -1.53390        3.39785        0.31413
H          1.48492       -2.80845       -1.46212
H          0.25240       -3.79272       -3.35229
H          0.57933        4.42576       -3.23876
H         -1.28472       -2.39370       -4.66417
C         -2.77548       -3.60323       -0.80748
C         -1.74062       -3.40795        0.09988
C         -1.38150       -2.10039        0.40187
C         -2.04001       -1.04292       -0.18176
C         -3.07432       -1.25664       -1.05951
C         -3.46676       -2.54817       -1.38873
H         -3.07146       -4.60395       -1.05960
H         -0.59348       -1.90819        1.10821
H         -3.58433       -0.40368       -1.47225
C         -5.62002        2.46869        1.59949
C         -5.26758        2.49672        0.25458
C         -4.04885        1.93873       -0.10946
C         -3.21990        1.38765        0.83646
C         -3.58419        1.37147        2.15756
C         -4.79397        1.91106        2.56898
H         -6.55819        2.89412        1.89930
H         -3.73612        1.94284       -1.14066
H         -2.90588        0.94940        2.87620
C          3.91124       -3.49108        1.70074
C          2.98496       -2.79231        2.46031
C          2.26742       -1.78165        1.83740
C          2.48445       -1.46210        0.51657
C          3.43075       -2.14983       -0.20603
C          4.15417       -3.18899        0.36817
H          4.45655       -4.29493        2.15993
H          1.53436       -1.23827        2.40132
H          3.59278       -1.88072       -1.23407
C          4.32211        2.98697       -2.01253
C          3.52533        3.30998       -0.92169
C          2.69806        2.32123       -0.40662
C          2.66280        1.07163       -0.97190
C          3.44213        0.77644       -2.06454
C          4.30536        1.72626       -2.59796
H          4.97467        3.74249       -2.40762
H          2.07264        2.52005        0.44458
H          3.36183       -0.19523       -2.52069
Pd         0.29181        0.63979        1.53652
C          0.44907       -4.58538        0.48516
C         -1.05142       -4.57716        0.82096
C         -1.64555       -5.93696        0.40531
C         -1.24454       -4.40762        2.33923
H          0.60338       -4.73298       -0.58301
H          0.91824       -3.64612        0.76893
H          0.96499       -5.38810        1.01153
H         -2.70830       -5.98975        0.64101
H         -1.51715       -6.11123       -0.66287
H         -1.15013       -6.75190        0.93305
H         -0.80740       -5.24312        2.88516
H         -0.77795       -3.49092        2.69632
H         -2.30439       -4.36100        2.58862
C         -4.15933       -3.58039       -3.56918
C         -4.65453       -2.83139       -2.32015
C         -5.34776       -1.52963       -2.76706
C         -5.69053       -3.69475       -1.57512
H         -3.44181       -2.97494       -4.12038
H         -3.67217       -4.51736       -3.30154
H         -4.98727       -3.81217       -4.23895
H         -5.72271       -0.97462       -1.90752
H         -4.66375       -0.88811       -3.32099
H         -6.19566       -1.74521       -3.41703
H         -6.02669       -3.19357       -0.66756
H         -6.56353       -3.88205       -2.20014
H         -5.27381       -4.65991       -1.29013
C         -5.38811        4.27348       -1.50797
C         -6.15655        3.12432       -0.82855
C         -7.46294        3.68999       -0.23944
C         -6.51620        2.05316       -1.87488
H         -5.10399        5.03089       -0.77768
H         -4.47788        3.91327       -1.98624
H         -5.99885        4.75320       -2.27257
H         -8.08082        4.13030       -1.02198
H         -8.04851        2.90615        0.24068
H         -7.25752        4.46868        0.49488
H         -7.16379        2.46515       -2.64860
H         -5.62443        1.66100       -2.36243
H         -7.03818        1.21874       -1.40697
C         -4.09647        2.65175        4.86014
C         -5.16027        1.87703        4.05973
C         -5.20153        0.41335        4.53722
C         -6.53599        2.51756        4.32579
H         -4.03420        3.68461        4.51827
H         -4.33771        2.66113        5.92284
H         -3.11052        2.20254        4.74686
H         -5.93139       -0.15805        3.96408
H         -4.23187       -0.06888        4.41886
H         -5.47658        0.35385        5.59007
H         -7.32464        1.99039        3.78921
H         -6.77969        2.48241        5.38757
H         -6.54770        3.56352        4.01988
C          4.12803       -2.91061        4.68542
C          2.79562       -3.13120        3.94602
C          2.36209       -4.60134        4.08549
C          1.72370       -2.23802        4.60324
H          4.91162       -3.55606        4.29032
H          4.45938       -1.87789        4.57828
H          4.02429       -3.12380        5.74915
H          1.43406       -4.78112        3.54524
H          3.11706       -5.27763        3.68643
H          2.19961       -4.86271        5.13098
H          2.00032       -1.18542        4.54564
H          0.75440       -2.36509        4.12300
H          1.60358       -2.48916        5.65681
C          4.59823       -5.46146       -0.57513
C          5.15523       -4.03378       -0.43240
C          6.50818       -4.07207        0.30373
C          5.39128       -3.45294       -1.83913
H          3.63694       -5.44955       -1.08884
H          5.27953       -6.09186       -1.14625
H          4.44962       -5.92473        0.39982
H          6.41957       -4.54673        1.27991
H          7.24717       -4.63189       -0.26933
H          6.89213       -3.06328        0.45443
H          4.47077       -3.44025       -2.42244
H          5.77831       -2.43690       -1.77438
H          6.11909       -4.05025       -2.38818
C          5.01529        4.97092        0.21713
C          3.59097        4.71534       -0.30762
C          2.60280        4.86811        0.86615
C          3.23568        5.76073       -1.38053
H          5.09093        5.95584        0.67751
H          5.28792        4.22640        0.96488
H          5.74814        4.92099       -0.58737
H          2.83424        4.16736        1.66804
H          2.65021        5.87353        1.28388
H          1.57749        4.69373        0.54105
H          3.93298        5.72529       -2.21659
H          2.23446        5.58464       -1.77180
H          3.26270        6.76859       -0.96670
C          6.18244        2.49452       -4.13942
C          5.21120        1.35273       -3.78240
C          4.34951        1.03882       -5.01830
C          6.04073        0.10938       -3.41193
H          6.81535        2.75002       -3.28972
H          6.83529        2.20348       -4.96229
H          5.64173        3.38812       -4.45062
H          3.64239        0.23580       -4.81309
H          3.78550        1.91673       -5.33044
H          4.97224        0.72833       -5.85716
H          6.74128       -0.14507       -4.20714
H          6.61169        0.28299       -2.50000
H          5.39796       -0.75405       -3.24971
H         -1.41686        0.62511       -5.17366
H          1.91376        2.54666       -4.24250
H         -2.33135        0.98862       -3.70689
H         -2.73718       -0.42732       -4.67194
H          0.39312        2.20515       -5.06688
H          1.23632        0.92171       -4.19287
