111
-148.54984387
P         -2.42361        2.24397        0.58953
P          0.05954        0.27011        0.48745
C         -1.42198        1.97242        2.07591
C         -0.33077        1.13395        2.01759
C         -2.84083        4.03963        0.41667
C         -2.32870        4.60324       -0.89057
C         -1.73765        2.60802        3.25977
H         -2.58811        3.26890        3.29908
C         -0.96067        2.39388        4.38528
H         -1.20776        2.88838        5.31052
C          0.13093        1.54891        4.32403
H          0.73532        1.38161        5.20032
C          0.44725        0.91634        3.13493
H          1.29306        0.24968        3.06883
Pd        -1.35716        1.11484       -1.12584
Cl        -2.92477        1.91559       -2.51857
Cl        -0.24099        0.02287       -2.73910
C         -4.37781        4.06298        0.55842
C         -4.12145        1.51469        0.67076
H         -2.53672        5.67246       -0.97556
H         -1.25030        4.45868       -0.99076
H         -2.80730        4.10875       -1.73665
H         -4.79237        4.85109       -0.08675
H         -4.65504        4.34673        1.58428
H         -4.14624        0.69055       -0.05548
C         -5.01544        2.68650        0.21656
C         -4.43203        1.00579        2.06169
H         -2.35928        4.55120        1.26120
H         -6.00917        2.59271        0.67862
H         -5.18432        2.62516       -0.86877
H         -4.42111        1.82445        2.78322
H         -5.41906        0.53941        2.10789
H         -3.69320        0.27044        2.38763
C         -0.99492       -4.15423        0.78748
C         -1.41875       -3.25797        1.80209
C         -1.05240       -1.92623        1.69476
C         -0.36856       -1.46600        0.59933
C         -0.07059       -2.30481       -0.44232
C         -0.39160       -3.65056       -0.39274
O         -1.14916       -5.55654        0.95446
C         -2.25374       -3.70522        3.01278
H         -1.29634       -1.22571        2.47397
H          0.39880       -1.88083       -1.31229
C         -0.08760       -4.54840       -1.60246
C          4.32575        1.06728       -0.89104
C          3.31051        2.03294       -1.10989
C          2.03664        1.76369       -0.63724
C          1.73987        0.56094       -0.05115
C          2.69119       -0.41866        0.06537
C          3.98653       -0.21162       -0.38008
O          5.68345        1.39434       -1.14976
C          3.57079        3.35695       -1.84516
H          1.25094        2.49488       -0.72496
H          2.40532       -1.35507        0.51178
C          5.00113       -1.36267       -0.29375
C         -3.14471       -4.91147        2.66342
C         -1.31392       -4.05689        4.17579
C         -3.20055       -2.57110        3.46731
C          1.26970       -5.23888       -1.40397
C         -1.19449       -5.60213       -1.78693
C         -0.02661       -3.71768       -2.90434
C         -0.06976       -6.18301        1.63601
H         -3.78161       -4.68266        1.80957
H         -2.55097       -5.78571        2.40999
H         -3.78593       -5.18127        3.50219
H         -0.62946       -4.85645        3.90233
H         -0.71471       -3.19252        4.46121
H         -1.87840       -4.37980        5.05017
H         -3.87711       -2.92106        4.24666
H         -2.65181       -1.72489        3.87778
H         -3.80632       -2.21784        2.63334
H          1.52234       -5.85778       -2.26455
H          2.06091       -4.50201       -1.27446
H          1.26337       -5.87688       -0.52426
H         -1.24583       -6.27429       -0.93342
H         -2.16679       -5.12244       -1.89414
H         -1.01489       -6.20803       -2.67463
H         -0.92739       -3.11651       -3.02506
H          0.83490       -3.05140       -2.91511
H          0.06063       -4.36754       -3.77465
H          0.74341       -5.47364        1.79498
H         -0.41115       -6.56509        2.59754
H          0.29054       -7.02553        1.04570
C          6.36111        1.96756       -0.03891
C          2.29541        3.82811       -2.58164
C          3.97920        4.43374       -0.82912
C          4.66821        3.19050       -2.91203
C          6.04542       -1.27067       -1.42153
C          5.69661       -1.32579        1.07510
C          4.28945       -2.72483       -0.45454
H          2.50915        4.68920       -3.21434
H          1.90004        3.03568       -3.21676
H          1.51494        4.12991       -1.88484
H          3.19652        4.57761       -0.08460
H          4.88908        4.15405       -0.30332
H          4.15575        5.38910       -1.32266
H          4.40648        2.39588       -3.60995
H          4.80561        4.11008       -3.48029
H          5.62434        2.93656       -2.46104
H          6.72018       -2.12612       -1.40189
H          5.55695       -1.24580       -2.39507
H          6.65113       -0.37266       -1.32959
H          6.41660       -2.13831        1.16944
H          6.22692       -0.38759        1.22154
H          4.96862       -1.42421        1.88003
H          5.01442       -3.53586       -0.51987
H          3.68929       -2.73790       -1.36386
H          3.63923       -2.94467        0.39088
H          7.20551        1.33741        0.23972
H          6.74449        2.95038       -0.31272
H          5.68437        2.06461        0.81097
