111
-148.55182862
P         -2.06710        2.53519        0.89019
P         -0.19738       -0.03071        0.54224
C         -1.30883        1.75961        2.33966
C         -0.50790        0.64906        2.18583
C         -1.75769        4.35896        0.90519
C         -1.12998        4.80955       -0.39585
C         -1.49135        2.31008        3.59198
H         -2.10009        3.19283        3.70149
C         -0.87625        1.73926        4.69276
H         -1.02070        2.16708        5.67139
C         -0.06677        0.63096        4.53569
H          0.42259        0.19311        5.39011
C          0.12575        0.09085        3.27675
H          0.78253       -0.75324        3.13381
Pd        -1.31314        1.36876       -0.94487
Cl        -2.72438        2.54107       -2.23290
Cl        -0.31386        0.22682       -2.60460
C         -3.16012        4.94864        1.16137
C         -3.91802        2.51314        0.88927
H         -1.79528        4.59992       -1.23519
H         -0.92846        5.88342       -0.39428
H         -0.18880        4.28865       -0.58553
H         -3.24125        5.92884        0.66922
H         -3.29369        5.14513        2.23533
H         -4.21642        1.90163        0.02643
C         -4.28502        3.99515        0.66919
C         -4.47225        1.92153        2.16753
H         -1.08107        4.55835        1.74745
H         -5.23380        4.21863        1.17840
H         -4.47213        4.17714       -0.39941
H         -5.56324        1.86777        2.14354
H         -4.08738        0.91318        2.33779
H         -4.19417        2.53113        3.02844
C         -0.99962       -4.51094        0.19078
C         -1.22814       -3.86118        1.43306
C         -0.97519       -2.50201        1.51915
C         -0.59279       -1.77839        0.41862
C         -0.51451       -2.38076       -0.80981
C         -0.74426       -3.73531       -0.97013
O         -0.94676       -5.92703        0.12507
C         -1.74547       -4.57947        2.69097
H         -1.07231       -1.99382        2.46177
H         -0.27018       -1.76798       -1.65925
C         -0.71601       -4.30268       -2.39931
C          4.03632        1.02950       -0.73951
C          3.61712       -0.32450       -0.80513
C          2.32597       -0.63093       -0.41160
C          1.49380        0.33381        0.08996
C          1.92433        1.62524        0.24789
C          3.20547        1.99975       -0.12176
O          5.27134        1.42040       -1.32194
C          4.51707       -1.44999       -1.33898
H          1.94551       -1.63181       -0.50813
H          1.23273        2.34294        0.65575
C          3.65488        3.44950        0.11732
C         -0.59783       -4.72880        3.70323
C         -2.87776       -3.74549        3.33069
C         -2.33366       -5.96507        2.37209
C         -1.31928       -5.71540       -2.48146
C         -1.55697       -3.39731       -3.32695
C          0.73524       -4.33208       -2.90722
C          0.35666       -6.43797        0.35004
H         -0.94361       -5.21570        4.61472
H          0.21433       -5.32523        3.29209
H         -0.19035       -3.75588        3.97643
H         -3.67027       -3.55502        2.60753
H         -3.31585       -4.27150        4.17856
H         -2.51755       -2.78556        3.69687
H         -2.78024       -6.41591        3.25802
H         -3.10296       -5.88853        1.60451
H         -1.56650       -6.64470        2.00856
H         -0.71689       -6.43400       -1.93091
H         -2.32376       -5.72921       -2.05994
H         -1.37861       -6.05795       -3.51426
H         -2.57172       -3.29213       -2.94444
H         -1.12793       -2.40116       -3.42000
H         -1.61751       -3.81835       -4.33010
H          0.78374       -4.71546       -3.92602
H          1.16771       -3.33219       -2.90502
H          1.35920       -4.96590       -2.27982
H          0.69914       -6.16285        1.34618
H          0.33681       -7.52454        0.26348
H          1.05016       -6.03043       -0.38393
C          5.17168        1.80875       -2.68641
C          4.32059       -1.57689       -2.85745
C          5.99710       -1.18001       -1.01344
C          4.15133       -2.80134       -0.68237
C          5.16526        3.52043        0.40568
C          3.30887        4.29926       -1.11490
C          2.93261        4.04916        1.34603
H          4.59238       -0.65684       -3.36887
H          4.93137       -2.38207       -3.26490
H          3.27846       -1.78985       -3.09400
H          6.62712       -2.00741       -1.33899
H          6.35507       -0.28041       -1.50757
H          6.13613       -1.04928        0.05919
H          4.86755       -3.57356       -0.96224
H          4.15624       -2.71844        0.40413
H          3.16856       -3.15049       -0.99542
H          5.74864        3.18478       -0.44804
H          5.47303        4.54039        0.63466
H          5.42351        2.88919        1.25527
H          3.59494        5.33993       -0.96461
H          3.82089        3.93527       -2.00208
H          2.23849        4.26873       -1.31597
H          1.86858        4.18865        1.16120
H          3.34333        5.02684        1.59704
H          3.04793        3.40408        2.21668
H          5.79978        1.16156       -3.29826
H          4.13751        1.74003       -3.02646
H          5.52624        2.83283       -2.80186
