105
-153.06044746
Cl         3.18266        1.11638       -1.25783
Pd         0.94544        0.83872       -1.18156
P         -1.39438        0.76798       -1.07902
N         -1.48339       -0.75176       -1.96787
C         -0.53740       -1.73921       -1.65514
C         -0.38218       -2.25151       -0.33851
C          0.62572       -3.20030       -0.07368
C          0.75512       -3.76873        1.31881
C          2.07510       -4.51192        1.57344
C          2.38288       -5.48130        0.42965
C          2.48282       -4.73808       -0.91161
C          1.43827       -3.66569       -1.11063
C          1.26752       -3.15474       -2.39140
C          0.30647       -2.21642       -2.66185
H          0.20250       -1.82004       -3.65662
H          1.90655       -3.50980       -3.18220
H          3.47445       -4.28317       -1.00815
H          3.30558       -6.04259        0.63460
H          2.89078       -3.78380        1.66235
H          0.64850       -2.95704        2.04644
C         -1.41450       -1.96773        0.68993
C         -1.06802       -1.33244        1.90799
C         -1.98292       -1.33971        2.95958
C         -3.22489       -1.89765        2.81103
C         -3.60737       -2.48644        1.61283
C         -4.99534       -3.06781        1.51791
C         -5.15368       -4.09358        0.38678
C         -4.54877       -3.55534       -0.91227
C         -3.05453       -3.23766       -0.73901
C         -2.70185       -2.52941        0.54857
H         -2.46970       -4.16338       -0.79549
H         -5.08187       -2.64285       -1.20791
H         -6.21000       -4.36298        0.24489
H         -5.70804       -2.24686        1.37500
H         -3.92635       -1.87209        3.62774
H         -1.70724       -0.87159        3.88851
N          0.17361       -0.73769        2.12406
P          1.24092        0.19017        1.07230
C          2.81209       -0.67856        1.12156
C          3.52138       -0.64284        2.29891
C          4.73342       -1.30360        2.39446
C          5.24911       -1.99276        1.30555
C          4.51529       -2.02215        0.12830
C          3.29580       -1.37657        0.04200
H          2.72141       -1.40295       -0.87011
H          4.91096       -2.54674       -0.72422
C          6.54228       -2.72341        1.40851
H          5.28817       -1.28368        3.31689
H          3.12407       -0.09633        3.14016
C          1.51752        1.78989        1.86035
C          0.85687        2.09799        3.02744
C          1.04813        3.32738        3.63083
C          1.90545        4.26321        3.06949
C          2.57771        3.93171        1.90178
C          2.38043        2.70264        1.30285
H          2.90034        2.44813        0.39556
H          3.25714        4.64309        1.46414
C          2.13260        5.57903        3.72873
H          0.53011        3.56781        4.54358
H          0.17822        1.38305        3.46068
H          0.49536       -0.62329        3.07722
H         -1.47309       -0.45944       -2.93648
C         -1.65623        2.18993       -2.14462
C         -1.06801        3.38926       -1.81817
C         -1.26417        4.49246       -2.62887
C         -2.05094        4.40019       -3.76907
C         -2.65343        3.18548       -4.06814
C         -2.45525        2.08244       -3.25736
H         -2.92790        1.14085       -3.48526
H         -3.27896        3.10861       -4.94103
C         -2.27928        5.59304       -4.63070
H         -0.80457        5.43368       -2.37998
H         -0.45597        3.45808       -0.93214
C         -2.48438        0.97016        0.31569
C         -2.01287        1.63945        1.41751
C         -2.85473        1.86706        2.49079
C         -4.17608        1.44098        2.45263
C         -4.63438        0.77853        1.32086
C         -3.79004        0.54940        0.24921
H         -4.13817        0.04013       -0.63540
H         -5.65505        0.43805        1.28636
C         -5.07144        1.64646        3.62410
H         -2.48725        2.37264        3.36725
H         -0.98637        1.96551        1.43578
Cl         0.81707        1.10284       -3.41062
H          2.41203       -5.45213       -1.74222
H          2.04742       -5.04062        2.53675
H          1.58739       -6.23491        0.37089
H         -0.09195       -4.44057        1.50088
H         -4.70378       -4.26580       -1.73655
H         -2.71539       -2.62500       -1.58162
H         -5.25955       -3.52100        2.48201
H         -4.64573       -5.02541        0.66578
H          7.19288       -2.27055        2.15791
H          6.37716       -3.76433        1.69016
H          7.07612       -2.71249        0.45722
H          2.97579        5.52597        4.41876
H          2.34778        6.35543        2.99320
H          1.25415        5.89359        4.29394
H         -2.44958        5.30234       -5.66824
H         -3.14996        6.15557       -4.29098
H         -1.41778        6.26200       -4.61248
H         -4.80676        2.55466        4.16738
H         -6.11288        1.73852        3.31270
H         -5.00015        0.80675        4.31682
