111
-148.55179989
P         -2.41130        2.39991        0.30764
P         -0.10410        0.22065        0.51202
C         -1.88179        1.79773        1.92923
C         -0.90147        0.83335        2.01142
C         -2.32182        4.24338        0.21017
C         -1.17475        4.67602       -0.67695
C         -2.47162        2.28404        3.07790
H         -3.22845        3.04827        3.00406
C         -2.08909        1.78584        4.31141
H         -2.55048        2.16244        5.20969
C         -1.12290        0.80133        4.39115
H         -0.83098        0.40686        5.35050
C         -0.52849        0.32248        3.23731
H          0.22008       -0.45326        3.28279
Pd        -1.26422        1.15601       -1.26423
Cl        -2.47208        2.28524       -2.78558
Cl        -0.15345       -0.16253       -2.70212
C         -3.71799        4.63584       -0.30869
C         -4.21717        2.14310       -0.02189
H         -0.21815        4.30957       -0.29605
H         -1.29758        4.28019       -1.68685
H         -1.11648        5.76443       -0.75281
H         -3.67047        4.73973       -1.40144
H         -4.00339        5.62894        0.07018
H         -4.28180        1.76954       -1.05258
C         -4.78891        3.57025        0.06074
C         -4.83990        1.15333        0.93979
H         -2.17818        4.59977        1.23869
H         -5.14825        3.74966        1.08331
H         -5.67575        3.66479       -0.58422
H         -4.34069        0.18358        0.88835
H         -4.76230        1.50635        1.96896
H         -5.89973        1.00033        0.72376
C         -1.02043       -4.18727       -0.15108
C          0.29420       -3.70595       -0.39061
C          0.54675       -2.36161       -0.17949
C         -0.42107       -1.52680        0.31238
C         -1.65885       -2.00763        0.64992
C         -1.97679       -3.34516        0.47764
O         -1.39872       -5.47618       -0.60690
C          1.45770       -4.58228       -0.88421
H          1.50927       -1.94591       -0.41982
H         -2.38379       -1.31859        1.04938
C         -3.34208       -3.83010        0.99413
C          4.38620        1.01332        0.35238
C          3.67688        1.28334        1.55075
C          2.31481        1.03375        1.57881
C          1.64780        0.61011        0.45840
C          2.31309        0.46611       -0.73079
C          3.67470        0.68848       -0.82978
O          5.80643        1.03329        0.34512
C          4.36868        1.80551        2.81997
H          1.75546        1.16252        2.48738
H          1.74190        0.16690       -1.59133
C          4.35766        0.53585       -2.19772
C          1.72522       -4.28223       -2.36865
C          2.73068       -4.25973       -0.06920
C          1.17614       -6.08365       -0.70224
C         -3.58785       -3.25950        2.40918
C         -4.45259       -3.33302        0.05390
C         -3.41097       -5.36274        1.11054
C         -1.91973       -5.46243       -1.92560
H          1.94564       -3.22580       -2.51810
H          2.57364       -4.85870       -2.73640
H          0.86139       -4.52846       -2.98259
H          3.54702       -4.92704       -0.34451
H          3.07596       -3.24136       -0.23962
H          2.54454       -4.37901        0.99774
H          0.91683       -6.30320        0.33285
H          0.34930       -6.40871       -1.32917
H          2.04688       -6.68191       -0.96953
H         -3.67561       -2.17437        2.40007
H         -4.51086       -3.65493        2.83245
H         -2.77013       -3.52583        3.07829
H         -4.44185       -2.24626       -0.02118
H         -4.32942       -3.73484       -0.94968
H         -5.43449       -3.63476        0.41757
H         -3.34420       -5.83631        0.13400
H         -2.59047       -5.73880        1.72066
H         -4.34806       -5.68035        1.56718
H         -2.17054       -6.48057       -2.22391
H         -2.81454       -4.84427       -1.96828
H         -1.18175       -5.05619       -2.61499
C          6.40486       -0.21943        0.65377
C          3.39350        2.66085        3.66088
C          4.83521        0.61527        3.67172
C          5.56574        2.70734        2.46759
C          3.38070        0.90095       -3.33910
C          5.56666        1.48038       -2.32279
C          4.80159       -0.92330       -2.38296
H          3.91449        3.13759        4.49090
H          2.94355        3.44564        3.05334
H          2.59443        2.05818        4.09010
H          5.32215        0.95591        4.58515
H          3.98963       -0.01187        3.95336
H          5.54114       -0.00688        3.12692
H          5.25080        3.52952        1.82586
H          6.01544        3.13060        3.36542
H          6.33960        2.15260        1.94289
H          2.57320        0.17579       -3.42738
H          2.94143        1.88435       -3.17410
H          3.89681        0.92151       -4.29858
H          5.26591        2.51307       -2.14938
H          6.34025        1.23299       -1.60021
H          6.01136        1.41856       -3.31570
H          3.94527       -1.59510       -2.33271
H          5.50313       -1.22414       -1.60861
H          5.28491       -1.06486       -3.34925
H          7.04316       -0.11324        1.53077
H          5.63806       -0.96990        0.85031
H          7.02573       -0.54418       -0.18099
