171
-217.83602683
P         -1.65901        0.74852        0.31990
P          1.44738       -0.25108       -0.37035
C         -0.99073        1.74053       -1.03500
C          0.44556       -1.05275       -1.64033
C         -0.42905        1.20848       -2.18924
C          0.15972        2.08362       -3.12154
C          0.13992        3.44668       -2.87893
C         -0.43107        3.95750       -1.73324
C         -0.98575        3.09639       -0.80646
C          0.51852       -2.40819       -1.85203
C         -0.26360       -3.00264       -2.82289
C         -1.12911       -2.23396       -3.57308
C         -1.22411       -0.86638       -3.37305
C         -0.40279       -0.26044       -2.40347
Cl         2.35597        1.43914        2.28647
Cl        -0.62299        1.11745        3.45680
C         -2.17287       -0.05101       -4.18121
C          0.83016        1.58147       -4.35241
H         -0.43461        5.02028       -1.55436
H         -1.41044        3.47881        0.11009
H          1.17810       -3.00820       -1.24943
H         -0.20314       -4.06550       -2.99033
H          0.59130        4.11010       -3.59744
H         -1.74298       -2.69766       -4.32648
C         -2.95266       -3.55615       -0.29036
C         -1.79811       -3.32425        0.44687
C         -1.38830       -2.00701        0.61988
C         -2.09960       -0.97665        0.04804
C         -3.23800       -1.22913       -0.67727
C         -3.69213       -2.52806       -0.86022
H         -3.29054       -4.56889       -0.40320
H         -0.50910       -1.77998        1.19496
H         -3.79517       -0.40154       -1.08128
C         -5.50137        2.76930        1.62410
C         -5.22570        2.62907        0.26893
C         -4.02918        2.02172       -0.08837
C         -3.15290        1.58029        0.87254
C         -3.43954        1.73212        2.20473
C         -4.62445        2.33179        2.60948
H         -6.42048        3.23358        1.92847
H         -3.77324        1.89612       -1.12769
H         -2.71599        1.39487        2.92332
C          3.98558       -3.39386        1.74541
C          4.03478       -3.28114        0.36262
C          3.25105       -2.30394       -0.23847
C          2.42911       -1.49612        0.51000
C          2.40277       -1.62614        1.87901
C          3.18660       -2.57080        2.52650
H          4.59535       -4.13529        2.22805
H          3.27829       -2.16790       -1.30475
H          1.77956       -0.97305        2.45853
C          4.40069        2.45806       -2.49047
C          3.77943        2.93057       -1.34047
C          2.88196        2.09127       -0.69657
C          2.61163        0.84117       -1.19053
C          3.22047        0.39685       -2.33892
C          4.13386        1.19871       -3.01372
H          5.12437        3.07602       -2.98713
H          2.40544        2.40896        0.21301
H          2.96281       -0.57743       -2.71603
Pd         0.36439        0.78473        1.47459
C          0.25104       -4.07844        1.75418
C         -1.06115       -4.51352        1.08139
C         -0.71752       -5.55499       -0.00093
C         -1.96866       -5.15342        2.14721
H          0.77229       -4.93823        2.17409
H          0.91892       -3.61117        1.03300
H          0.06487       -3.37383        2.56397
H         -0.08291       -5.11662       -0.76973
H         -0.18279       -6.40110        0.43041
H         -1.61330       -5.94168       -0.48464
H         -2.22814       -4.42688        2.91706
H         -2.89547       -5.52010        1.70729
H         -1.47108       -5.99431        2.63007
C         -5.30229       -4.27141       -1.78300
C         -5.01503       -2.76864       -1.60140
C         -4.95581       -2.11711       -2.99453
C         -6.16078       -2.14089       -0.78675
H         -6.22856       -4.42354       -2.33698
H         -4.50038       -4.75802       -2.33812
H         -5.41061       -4.77100       -0.82056
H         -4.13878       -2.53844       -3.57882
H         -5.88259       -2.28459       -3.54303
H         -4.80327       -1.04114       -2.92422
H         -6.22039       -2.59115        0.20391
H         -6.00868       -1.07016       -0.65618
H         -7.11996       -2.28603       -1.28336
C         -7.44208        3.77158       -0.24610
C         -6.17974        3.11139       -0.83275
C         -6.61133        1.90859       -1.69250
C         -5.45275        4.14392       -1.71484
H         -7.18466        4.63882        0.36172
H         -8.10557        4.11141       -1.04128
H         -8.00132        3.06904        0.37154
H         -7.11721        1.16131       -1.08171
H         -7.29620        2.21858       -2.48155
H         -5.75365        1.43107       -2.16492
H         -5.11623        4.99105       -1.11747
H         -4.57888        3.70795       -2.19775
H         -6.11124        4.52192       -2.49667
C         -5.15806        4.02159        4.38453
C         -4.97997        2.52063        4.09127
C         -3.87465        1.97170        5.01522
C         -6.28906        1.77084        4.39925
H         -5.96684        4.44819        3.79246
H         -5.39095        4.18865        5.43603
H         -4.24592        4.56974        4.14943
H         -4.14072        2.11141        6.06280
H         -3.72159        0.90497        4.85334
H         -2.92881        2.48524        4.84415
H         -7.11702        2.15901        3.80722
H         -6.18593        0.70935        4.17469
H         -6.55677        1.86910        5.45116
C          4.88268       -3.89421       -1.95762
C          4.91947       -4.23297       -0.45408
C          4.41208       -5.67386       -0.26369
C          6.37695       -4.12315        0.03085
H          5.52321       -4.57123       -2.52265
H          3.87310       -3.98687       -2.35776
H          5.23564       -2.87896       -2.13763
H          5.00933       -6.37828       -0.84235
H          4.46063       -5.97411        0.78250
H          3.37531       -5.76229       -0.58852
H          6.73793       -3.09941       -0.06657
H          6.47182       -4.41374        1.07629
H          7.03183       -4.76904       -0.55380
C          2.90176       -4.11451        4.49620
C          3.23313       -2.67597        4.05844
C          2.22289       -1.72066        4.72627
C          4.64729       -2.30213        4.53802
H          1.90068       -4.39655        4.17329
H          3.60550       -4.83178        4.07605
H          2.94082       -4.20853        5.58132
H          1.20422       -1.93826        4.40630
H          2.25606       -1.81956        5.81102
H          2.44513       -0.68124        4.48564
H          5.39493       -2.97885        4.12564
H          4.90315       -1.29006        4.22488
H          4.71666       -2.34773        5.62468
C          4.64881        4.14835        0.66886
C          4.06410        4.31666       -0.74599
C          2.74970        5.11535       -0.67066
C          5.06895        5.11012       -1.60254
H          4.87756        5.11603        1.11474
H          3.94951        3.63478        1.32759
H          5.56797        3.56382        0.63817
H          2.31277        5.22905       -1.66236
H          2.01782        4.61522       -0.03742
H          2.92005        6.11051       -0.26053
H          4.69174        5.25540       -2.61471
H          5.24956        6.09539       -1.17287
H          6.02793        4.59562       -1.66036
C          4.27584       -0.60344       -4.80533
C          4.89219        0.69723       -4.25191
C          6.35325        0.42187       -3.85558
C          4.85171        1.75874       -5.36864
H          4.79171       -0.92073       -5.71148
H          4.35472       -1.41679       -4.08485
H          3.22413       -0.46346       -5.05388
H          6.83602        1.32722       -3.48862
H          6.40306       -0.32690       -3.06510
H          6.92727        0.05495       -4.70626
H          5.35935        1.39871       -6.26341
H          3.82452        1.99745       -5.64131
H          5.34229        2.68180       -5.06353
H         -2.95297       -0.67041       -4.62528
H          1.84114        1.98314       -4.42599
H         -1.65567        0.45969       -4.99393
H         -2.66051        0.70537       -3.56390
H          0.28426        1.88465       -5.24698
H          0.90733        0.49374       -4.35461
