100
-131.97559207
C         -1.50995        3.87234       -1.42394
C         -2.31971        2.65083       -1.47598
C         -0.13690        3.51412       -1.49151
C         -0.02469        2.03245       -1.56734
C          1.09713        1.38691       -2.31154
C         -1.43783        1.52055       -1.54629
C         -1.90764        0.14331       -1.98642
C         -1.04385       -0.51987       -3.04202
Cl         0.88406       -0.36219        2.82208
Cl        -1.75605       -1.95646        2.30808
C          3.10921        0.25069       -3.89548
C          2.38962        1.33009       -4.36982
C          2.84199       -0.25211       -2.63028
C          1.40932        1.89371       -3.59220
C          1.84695        0.28598       -1.84927
H         -3.40677        2.62139       -1.56220
H          0.69854        4.21217       -1.58325
H         -0.09318       -0.84098       -2.61573
H         -1.51978       -1.40841       -3.46331
H         -0.83036        0.16358       -3.86755
H          3.88790       -0.18773       -4.49794
H          2.59998        1.73007       -5.34853
H          3.44686       -1.05861       -2.25013
H          0.84305        2.73042       -3.96362
H         -1.90118        4.89303       -1.42941
P          1.73587       -0.31866       -0.15419
H         -2.92158        0.25989       -2.39022
P         -2.11725       -0.99699       -0.55818
H         -3.47028       -3.00146       -0.62292
C         -1.58799       -3.71324       -1.37687
C         -2.65680       -2.63133       -1.24832
C         -1.27188       -4.34355       -0.01811
H         -3.15534        0.41130        1.07411
C         -4.80806        0.06353       -0.25465
C         -3.53872       -0.40344        0.46569
H         -4.51998        0.86574       -0.95467
C         -5.47718       -1.04823       -1.06286
H          3.58299       -1.84933       -0.36610
H          2.55239        0.78851        1.83734
C          3.51186        3.28746        1.12004
C          2.66523        2.29882        0.29828
C          2.85270        0.85598        0.78633
C          4.34063        0.47656        0.68712
C          5.22325        1.45283        1.49260
C          5.00247        2.90968        1.04328
H          3.18305        3.26471        2.16638
H          3.34757        4.31994        0.78104
H          2.97347        2.35293       -0.75310
H          1.60597        2.57402        0.30092
H          4.50757       -0.55269        1.02662
H          4.63807        0.49216       -0.36820
H          4.98053        1.36223        2.55876
H          6.28368        1.17615        1.40942
H          5.35497        3.02902        0.01100
H          5.61150        3.60047        1.64350
C          2.63036       -4.36299       -0.89258
C          1.87883       -3.01720       -0.92379
C          2.55369       -1.98817       -0.01656
C          2.60960       -2.51908        1.42470
C          3.37949       -3.85270        1.48648
C          2.74168       -4.89806        0.54965
H          3.63606       -4.22582       -1.30866
H          2.13904       -5.09727       -1.54625
H          0.86381       -3.16387       -0.54879
H          1.76892       -2.63418       -1.94731
H          3.03846       -1.77148        2.10445
H          1.58706       -2.67956        1.78529
H          4.42163       -3.68400        1.18826
H          3.42580       -4.22769        2.51845
H          1.74223       -5.15443        0.92193
H          3.31108       -5.83802        0.57188
H         -0.68369       -3.22695       -1.77954
C         -2.01883       -4.79328       -2.37430
H         -3.78664       -1.21045        1.15560
C         -5.80113        0.65304        0.75275
H         -3.09017       -2.42442       -2.22780
H         -0.94728       -3.60226        0.71092
H         -0.49421       -5.10401       -0.10011
H         -2.15752       -4.82920        0.39243
H         -1.25143       -5.56076       -2.48756
H         -2.93042       -5.28658       -2.03556
H         -2.21956       -4.37249       -3.36096
H         -4.85414       -1.38282       -1.89076
H         -5.69241       -1.91027       -0.43081
H         -6.42402       -0.71171       -1.48858
H         -6.11746       -0.10715        1.46766
H         -5.36113        1.47300        1.32117
H         -6.69673        1.03239        0.25818
Fe        -1.02619        2.67722        0.13661
C         -2.43780        2.95538        1.64036
C         -1.69048        4.16878        1.36559
C         -0.28276        3.91055        1.60681
C         -0.16146        2.51981        1.99556
C         -1.48475        1.93386        2.02464
H         -3.52366        2.85026        1.60522
H         -2.12345        5.13574        1.09769
H          0.53006        4.63714        1.53448
H          0.74476        2.02341        2.34328
H         -1.71177        0.93305        2.39710
Pd        -0.29484       -0.88856        0.95186
