111
-148.55329082
P         -2.66733        2.12448        0.42003
P          0.09549        0.56981        0.37005
C         -1.59144        2.13491        1.88374
C         -0.37223        1.49492        1.84071
C         -3.62426        3.70925        0.32361
C         -3.46409        4.38310       -1.02105
C         -1.99076        2.76995        3.04296
H         -2.95198        3.25545        3.08129
C         -1.16258        2.76707        4.15222
H         -1.47490        3.26285        5.05682
C          0.06149        2.12826        4.10270
H          0.70518        2.12399        4.96689
C          0.45636        1.48606        2.94305
H          1.40170        0.96894        2.89077
Pd        -1.36767        1.24265       -1.29090
Cl        -3.07515        1.75677       -2.64882
Cl         0.02849        0.42468       -2.84585
C         -5.06832        3.26182        0.63324
C         -4.05466        0.90669        0.55332
H         -3.87448        3.75826       -1.81504
H         -3.98830        5.34107       -1.05527
H         -2.41186        4.56328       -1.25299
H         -5.77577        3.90660        0.09168
H         -5.28743        3.41448        1.70025
H         -3.90070        0.16093       -0.23887
C         -5.30200        1.76832        0.26987
C         -4.05636        0.24075        1.91194
H         -3.23257        4.36018        1.11675
H         -6.16181        1.36398        0.82372
H         -5.57175        1.69267       -0.79387
H         -4.18873        0.98047        2.70365
H         -4.86455       -0.48915        2.00103
H         -3.11183       -0.27502        2.09856
C         -0.96820       -3.83728        0.82131
C         -0.95128       -3.00427        1.97197
C         -0.61800       -1.66975        1.81022
C         -0.38203       -1.14584        0.56643
C         -0.51362       -1.91924       -0.55558
C         -0.85331       -3.25756       -0.47011
O         -1.01292       -5.24806        0.96303
C         -1.27714       -3.49675        3.39207
H         -0.52260       -1.02413        2.66587
H         -0.33622       -1.45818       -1.51229
C         -1.09982       -4.01705       -1.78407
C          4.52911        0.67298       -0.64441
C          3.69046        1.72949       -1.08442
C          2.34376        1.67767       -0.76311
C          1.84391        0.66603        0.01321
C          2.66845       -0.29994        0.52822
C          4.02533       -0.30399        0.25203
O          5.85902        0.57030       -1.13237
C          4.20747        2.89266       -1.94509
H          1.65716        2.41628       -1.13934
H          2.22855       -1.07112        1.13737
C          4.90983       -1.38642        0.89022
C          0.02053       -3.57210        4.21371
C         -2.24932       -2.50712        4.07145
C         -1.96682       -4.87213        3.39233
C         -1.80961       -5.36292       -1.55794
C         -2.01426       -3.17052       -2.69826
C          0.24203       -4.25463       -2.49646
C          0.27675       -5.83057        1.05453
H          0.72666       -4.27151        3.77006
H          0.50616       -2.59801        4.26529
H         -0.18219       -3.90049        5.23278
H         -2.53938       -2.86491        5.05903
H         -1.80260       -1.52294        4.20224
H         -3.15583       -2.39186        3.47822
H         -1.30034       -5.64771        3.02265
H         -2.27678       -5.15617        4.39773
H         -2.85009       -4.85906        2.75472
H         -2.06033       -5.83897       -2.50560
H         -1.17998       -6.05199       -1.00010
H         -2.73084       -5.22127       -0.99389
H         -2.27023       -3.71706       -3.60543
H         -2.94152       -2.91643       -2.18554
H         -1.53480       -2.24227       -3.00438
H          0.74511       -3.31061       -2.70375
H          0.91007       -4.85958       -1.88636
H          0.09335       -4.77057       -3.44462
H          0.85461       -5.60285        0.16031
H          0.80431       -5.43674        1.92178
H          0.17683       -6.91163        1.15375
C          5.98159       -0.20635       -2.31758
C          5.66869        3.23382       -1.60096
C          4.08493        2.51564       -3.42947
C          3.37629        4.17101       -1.69221
C          4.35539       -1.79623        2.27428
C          4.92695       -2.62703       -0.01593
C          6.34284       -0.87171        1.11649
H          6.01239        4.09990       -2.16599
H          5.77032        3.45881       -0.53983
H          6.33484        2.40629       -1.83133
H          4.67456        1.63226       -3.66197
H          3.04847        2.29799       -3.68649
H          4.42877        3.32814       -4.06896
H          2.35761        4.06980       -2.06349
H          3.33358        4.40141       -0.62803
H          3.81811        5.02664       -2.20243
H          4.20739       -0.92139        2.90692
H          3.40610       -2.32334        2.18986
H          5.04729       -2.46544        2.78524
H          5.32907       -2.39250       -0.99856
H          5.53734       -3.41886        0.41753
H          3.91837       -3.01593       -0.15532
H          6.95153       -1.61807        1.62633
H          6.33403        0.03206        1.72487
H          6.83321       -0.63479        0.17575
H          6.41367        0.40301       -3.11119
H          6.64753       -1.04972       -2.13594
H          5.00472       -0.57520       -2.63295
