111
-148.54981473
P         -2.66282        1.87126        0.09825
P          0.18141        0.50266        0.39553
C         -1.78355        1.93335        1.68854
C         -0.52481        1.38321        1.79772
C         -3.77092        3.34850       -0.07308
C         -3.51862        4.10349       -1.35909
C         -2.37172        2.51833        2.79255
H         -3.36524        2.92779        2.71437
C         -1.69147        2.55979        3.99745
H         -2.15114        3.01764        4.85812
C         -0.42730        2.01215        4.10003
H          0.10065        2.04100        5.03897
C          0.15562        1.41540        2.99686
H          1.13297        0.96329        3.06393
Pd        -1.05249        1.20161       -1.43335
Cl        -2.51581        1.72817       -3.04508
Cl         0.56016        0.42369       -2.78937
C         -5.18293        2.73299        0.02358
C         -3.91023        0.50616        0.01004
H         -2.47151        4.40210       -1.44645
H         -3.75769        3.48150       -2.22231
H         -4.13506        5.00314       -1.42452
H         -5.88245        3.32289       -0.58654
H         -5.55517        2.80918        1.05580
H         -3.57078       -0.18670       -0.77244
C         -5.19620        1.24210       -0.41790
C         -4.02238       -0.21080        1.33783
H         -3.56243        3.99896        0.78668
H         -6.07253        0.72235       -0.00372
H         -5.30848        1.18912       -1.51092
H         -4.33523        0.47980        2.12318
H         -4.75384       -1.02144        1.29670
H         -3.06319       -0.63697        1.63855
C         -1.38934       -3.76920        0.54190
C         -0.94473       -3.22206       -0.68844
C         -0.45576       -1.92849       -0.68753
C         -0.34060       -1.21148        0.47376
C         -0.66106       -1.77733        1.67979
C         -1.14981       -3.07118        1.75374
O         -2.11530       -4.98972        0.55557
C         -1.04570       -3.97608       -2.02281
H         -0.17880       -1.44488       -1.60749
H         -0.54950       -1.18061        2.56797
C         -1.45327       -3.67713        3.13288
C          4.70158        0.92720        0.03222
C          3.91929        2.04520        0.41927
C          2.54986        1.87672        0.54675
C          1.95512        0.67791        0.25045
C          2.69426       -0.37354       -0.22420
C          4.06574       -0.26986       -0.38473
O          6.11929        0.99582        0.08856
C          4.53782        3.41915        0.72218
H          1.92370        2.68355        0.88681
H          2.17892       -1.28422       -0.47472
C          4.83809       -1.44825       -0.99833
C         -2.39548       -3.65334       -2.68211
C          0.08686       -3.54245       -2.98148
C         -0.90168       -5.49469       -1.81750
C         -1.26534       -5.20511        3.12135
C         -0.48624       -3.11317        4.19864
C         -2.89168       -3.32387        3.54114
C         -3.52287       -4.82351        0.43641
H         -3.22600       -3.95760       -2.04948
H         -2.49022       -2.58229       -2.86037
H         -2.49522       -4.16494       -3.63897
H          0.09012       -4.15900       -3.87996
H         -0.02888       -2.50913       -3.30469
H          1.05958       -3.64540       -2.50227
H          0.03475       -5.72595       -1.31093
H         -1.71371       -5.89286       -1.21444
H         -0.91074       -6.02164       -2.77129
H         -1.97276       -5.68699        2.45118
H         -0.26072       -5.46555        2.78987
H         -1.41452       -5.62598        4.11538
H          0.55007       -3.23651        3.88512
H         -0.66429       -2.05535        4.38630
H         -0.61268       -3.63181        5.14872
H         -3.13664       -3.74935        4.51396
H         -3.02059       -2.24378        3.60493
H         -3.61117       -3.70127        2.81842
H         -3.77643       -3.76512        0.36275
H         -3.87926       -5.34445       -0.45208
H         -4.01731       -5.25599        1.30608
C          6.67277        0.58218        1.33137
C          5.77828        3.67387       -0.15358
C          3.53161        4.55149        0.41526
C          4.91526        3.48962        2.20958
C          5.29790       -2.39618        0.11936
C          3.93702       -2.23920       -1.97439
C          6.04991       -0.95199       -1.80766
H          6.17667        4.67448        0.01232
H          6.57183        2.96396        0.06586
H          5.52790        3.57886       -1.20963
H          2.69058        4.54212        1.10696
H          4.00823        5.52736        0.50544
H          3.14415        4.46089       -0.59920
H          4.03666        3.34190        2.83722
H          5.63971        2.72159        2.46936
H          5.34827        4.45846        2.45717
H          4.44290       -2.77486        0.67903
H          5.83803       -3.24938       -0.29026
H          5.95464       -1.88902        0.82183
H          3.47864       -1.57343       -2.70532
H          4.51538       -2.98628       -2.51740
H          3.14492       -2.76938       -1.44803
H          6.56077       -1.78080       -2.29707
H          6.77353       -0.44955       -1.17051
H          5.73444       -0.24646       -2.57558
H          7.35612       -0.25090        1.16769
H          7.23823        1.40352        1.77116
H          5.88216        0.27603        2.01756
