64
-97.21384130
Cl        -1.61025       -1.34520       -2.52886
Cl         1.64404       -1.21419       -2.91120
P          1.94520       -0.64078        0.25863
C          2.12950       -2.32131        1.01494
C          3.73748       -0.23576       -0.02527
P         -1.28270       -0.14155        0.42763
C          1.26560        0.58245        1.43523
C         -0.16032        0.83308        1.49832
C         -0.37771        1.94964        2.40597
C          0.92115        2.39669        2.87864
C          1.93892        1.53560        2.30262
H         -1.34539        2.35185        2.71230
H          1.09832        3.20901        3.58746
Pd         0.17772       -0.91329       -1.25187
H          3.01629        1.60698        2.46319
C         -5.04524        2.07754       -0.90241
C         -4.06898        2.75858       -0.20352
C         -2.92548        2.09710        0.20375
C         -2.75413        0.76331       -0.09179
C         -3.73067        0.08291       -0.78320
C         -4.87828        0.73831       -1.19213
H         -5.93735        2.59117       -1.22195
H         -4.19669        3.80421        0.02419
H         -2.16031        2.62331        0.74584
H         -3.58778       -0.96131       -1.00945
H         -5.63778        0.20390       -1.73884
C         -2.59035       -3.95375        2.52202
C         -2.38521       -2.80038        3.25440
C         -1.99553       -1.63746        2.61396
C         -1.81231       -1.64058        1.25055
C         -2.02288       -2.78404        0.51579
C         -2.41200       -3.94774        1.15225
H         -2.89345       -4.86010        3.02043
H         -2.52669       -2.80547        4.32270
H         -1.82528       -0.72868        3.16940
H         -1.89252       -2.75335       -0.55398
H         -2.57730       -4.84575        0.57995
C          4.12478       -0.28339       -1.48695
H          3.90321        0.77051        0.38116
C          4.46401       -1.30117        0.81904
H          4.64260       -0.91754        1.83428
C          3.63822       -2.61232        0.90169
H          5.45975       -1.49514        0.39421
C          1.62346       -2.31285        2.44109
H          1.54220       -3.01678        0.39972
H          3.96154       -3.22160        1.75798
H          3.83650       -3.22489        0.01019
H          2.18504       -1.59549        3.04286
H          0.57167       -2.02546        2.48788
H          1.72608       -3.29425        2.91015
H          5.18859       -0.07901       -1.62595
H          3.92148       -1.27136       -1.90300
H          3.56587        0.44215       -2.07966
Fe         0.81799        2.47728        0.84453
C         -0.03573        2.73845       -1.02114
C          1.32135        2.23710       -1.10933
C          2.20863        3.18805       -0.46683
C          1.38310        4.25631        0.07196
C         -0.00029        3.99058       -0.28778
H         -0.91679        2.27219       -1.46637
H          1.62243        1.34474       -1.66138
H          3.29672        3.11568       -0.40069
H          1.74670        5.13699        0.60705
H         -0.85629        4.63261       -0.06822
