115
-277.93781094
P         -1.50377        0.63826        0.22649
P          2.09998        0.13127       -0.03337
C         -2.48603        2.13860        0.09985
C         -3.77839        2.11807        0.58143
H         -4.23795        1.17750        0.84327
C         -4.41926        3.31141        0.85580
H         -5.37579        3.31451        1.35308
C         -3.77156        4.51872        0.63470
C         -2.53058        4.52054        0.01969
H         -2.03444        5.46653       -0.13297
C         -1.87995        3.33090       -0.23320
H         -0.87427        3.33877       -0.62063
C         -2.49917       -0.70204       -0.45697
C         -2.83253       -1.79274        0.31371
H         -2.52609       -1.83902        1.34526
C         -3.55421       -2.83001       -0.23857
H         -3.81167       -3.70009        0.34622
C         -3.95396       -2.77401       -1.56057
C         -3.63072       -1.66890       -2.32165
H         -3.95614       -1.63563       -3.34946
C         -2.89845       -0.63889       -1.77080
H         -2.62487        0.21374       -2.36972
C         -1.15710        0.36080        2.00841
C         -0.42914       -0.79549        2.20071
H         -0.11255       -1.36189        1.34704
C          0.06951       -1.15787        3.44918
C         -0.38234       -0.44670        4.55311
H         -0.04951       -0.72880        5.53800
C         -1.11804        0.70791        4.37961
H         -1.35368        1.31467        5.23763
C         -1.41175        1.19803        3.10615
C          1.93211        0.84561        1.64034
C          1.23091        2.03908        1.64348
H          0.82027        2.41186        0.72044
C          0.90155        2.68607        2.83502
C          1.50587        2.23239        4.00167
H          1.30041        2.73576        4.93161
C          2.22334        1.05319        4.00558
H          2.57557        0.65225        4.94078
C          2.34681        0.27977        2.85205
C         -1.65315        2.68716        2.99766
H         -2.26580        3.01365        3.84667
H         -2.28929        2.89426        2.14175
C         -0.33585        3.54268        2.91723
H         -0.36899        4.22498        2.06164
H         -0.25753        4.20252        3.78858
C          1.32356       -1.98850        3.52767
H          1.17768       -2.90928        2.95319
H          1.46105       -2.32417        4.56122
C          2.59195       -1.20062        3.02895
H          3.42938       -1.34691        3.71982
H          2.94149       -1.60634        2.08227
C          1.94131       -1.66382       -0.19125
C          3.02999       -2.46630        0.07498
C          0.70837       -2.23112       -0.43230
C          2.84881       -3.82201        0.26562
C          0.52756       -3.58415       -0.25099
C          1.58353       -4.37691        0.16748
C          3.62067        0.70182       -0.80274
C          4.24184       -0.02944       -1.78830
C          4.15923        1.89369       -0.37821
C          5.41673        0.43140       -2.34767
H          3.80243       -0.95384       -2.12706
C          5.33368        2.35290       -0.93651
H          3.66615        2.45736        0.39739
C          5.96849        1.62505       -1.92508
H          5.92847       -0.13086       -3.11282
H          5.78041        3.27550       -0.60257
Pd         0.26724        0.83499       -1.31598
Cl        -1.27597        1.84790       -2.60913
Cl         1.74280        0.92207       -3.01004
H         -0.45419       -4.02182       -0.33438
H         -0.14011       -1.61294       -0.66978
H          3.66074       -4.44846        0.60105
H          4.00323       -2.02291        0.21602
C         -5.72044        5.83651        1.58662
C         -4.18148        5.77284        1.36656
C         -3.37635        5.76820        2.70613
F         -6.30909        5.66720        0.39341
F         -6.09875        4.85762        2.42000
F         -6.04203        7.03621        2.09501
F         -3.81792        6.85234        0.66991
F         -3.62074        4.62551        3.36120
F         -2.07393        5.81679        2.39287
F         -3.72109        6.82955        3.44729
C         -4.02632       -5.25121       -1.92118
C         -4.74872       -3.89637       -2.17646
C         -6.19300       -3.87267       -1.60006
F         -4.60445       -6.20676       -2.66548
F         -2.74246       -5.09496       -2.28024
F         -4.10193       -5.55843       -0.61803
F         -4.83433       -3.72669       -3.49885
F         -6.74998       -2.70617       -1.95949
F         -6.89318       -4.89795       -2.10855
F         -6.13695       -3.95410       -0.26264
C          7.27899        3.59762       -2.78462
C          7.29781        2.07012       -2.47992
C          8.40821        1.68261       -1.46140
F          6.20269        3.84588       -3.54573
F          7.19059        4.28456       -1.63721
F          8.39876        3.92901       -3.44569
F          7.55343        1.43165       -3.62513
F          8.39477        0.34635       -1.34361
F          9.59955        2.09713       -1.91741
F          8.13295        2.24319       -0.27454
C          0.98048       -5.34185        2.33409
C          1.32006       -5.69432        0.85220
C          0.17965       -6.48710        0.15173
F          0.69141       -6.45929        3.01427
F          2.05491       -4.73583        2.85727
F         -0.05030       -4.48541        2.35442
F          2.42011       -6.45091        0.84370
F         -0.98060       -5.83137        0.29979
F          0.48974       -6.57891       -1.15041
F          0.09956       -7.71167        0.69589
