59
-75.80653676
Cl         1.56444        0.71503        2.35568
P          1.60232       -0.12283       -0.78469
P         -1.53781       -0.20153       -0.83753
C          0.67714        0.28129       -2.33105
H          0.44043        1.34880       -2.31069
H          1.32725        0.10138       -3.19305
C         -0.57846       -0.54055       -2.37708
H         -0.34331       -1.60626       -2.42103
H         -1.20249       -0.30668       -3.24535
C          2.49338       -1.73757       -0.98749
H          1.86224       -2.41512       -1.57496
C          3.11338        0.93883       -0.61331
H          3.32802        0.95450        0.46271
C         -2.80781       -1.48267       -0.40037
H         -2.71027       -1.64477        0.68022
C         -2.64853        1.26246       -1.08551
H         -2.68636        1.44266       -2.16681
C          3.73856       -1.28453       -1.77829
H          4.55360       -2.01100       -1.64196
H          3.51011       -1.30208       -2.85514
C          4.20454        0.14668       -1.36849
H          4.50735        0.71306       -2.26039
H          5.11149        0.08478       -0.74916
C         -4.13936       -0.77769       -0.71272
H         -4.44321       -1.03306       -1.73727
H         -4.93898       -1.16419       -0.06253
C         -4.01243        0.76338       -0.57897
H         -4.12194        1.04697        0.47684
H         -4.83098        1.27285       -1.10976
C          2.84790       -2.36201        0.36272
H          3.26653       -1.57873        1.00849
H          3.66550       -3.08241        0.21946
C          2.91068        2.36308       -1.11476
H          3.88407        2.87146       -1.15778
H          2.55879        2.32856       -2.15371
C         -2.61466       -2.80058       -1.14190
H         -3.51738       -3.41571       -1.02148
H         -2.54785       -2.59561       -2.21826
C         -2.12525        2.49811       -0.36592
H         -2.03914        2.27485        0.70564
H         -1.10129        2.70034       -0.70469
C          1.68365       -3.05162        1.05649
H          1.30589       -3.88319        0.45907
H          0.85229       -2.36767        1.22442
H          1.97048       -3.45541        2.03013
C          1.94950        3.16056       -0.24836
H          2.32565        3.25734        0.77188
H          0.98088        2.66657       -0.18026
H          1.78163        4.16787       -0.63604
C         -1.39600       -3.57364       -0.66550
H         -0.48750       -2.98095       -0.77055
H         -1.25147       -4.50092       -1.22455
H         -1.48433       -3.83615        0.39055
C         -2.99441        3.72823       -0.57948
H         -4.00764        3.56832       -0.20671
H         -2.59299        4.60655       -0.06881
H         -3.07647        3.97315       -1.64013
Cl        -1.71407        0.17582        2.31864
Pd        -0.00156        0.11221        0.87370
