111
-148.55451710
P         -2.40808        2.33928       -0.02818
P         -0.00270        0.34205        0.49680
C         -1.73705        2.16174        1.64360
C         -0.72351        1.25786        1.87342
C         -2.55992        4.11631       -0.51394
C         -1.81409        4.37077       -1.80571
C         -2.25008        2.90280        2.68881
H         -3.02800        3.62398        2.49819
C         -1.75997        2.71786        3.97007
H         -2.16134        3.29444        4.78742
C         -0.76306        1.79006        4.20313
H         -0.38656        1.63988        5.20158
C         -0.24398        1.05681        3.15120
H          0.53362        0.32727        3.31673
Pd        -1.22779        0.90352       -1.40007
Cl        -2.73101        1.30907       -3.01476
Cl        -0.04141       -0.62012       -2.54901
C         -4.08504        4.32687       -0.61897
C         -4.17837        1.80659       -0.17042
H         -0.75420        4.12245       -1.70883
H         -2.22277        3.75750       -2.61113
H         -1.89053        5.41618       -2.11447
H         -4.29967        5.06570       -1.40475
H         -4.46751        4.76770        0.31331
H         -4.18285        0.90340       -0.79591
C         -4.83431        2.99452       -0.90273
C         -4.78945        1.51419        1.18401
H         -2.12992        4.70986        0.30433
H         -5.89091        3.07181       -0.60742
H         -4.84120        2.80564       -1.98635
H         -4.83880        2.42094        1.78857
H         -5.80761        1.12916        1.09005
H         -4.19880        0.78187        1.73872
C         -1.12425       -4.06488        0.64303
C          0.23787       -3.69503        0.78591
C          0.56099       -2.34937        0.73956
C         -0.41395       -1.39343        0.63115
C         -1.73979       -1.73886        0.59808
C         -2.13223       -3.06694        0.63223
O         -1.47429       -5.43219        0.48197
C          1.36306       -4.72947        0.94750
H          1.58694       -2.02830        0.77172
H         -2.46815       -0.94941        0.52311
C         -3.63159       -3.40178        0.60195
C          4.48221        1.09379        0.04218
C          3.81394        0.20428       -0.83617
C          2.44800        0.04000       -0.68516
C          1.76256        0.64064        0.33786
C          2.42547        1.42271        1.24870
C          3.78951        1.64191        1.15133
O          5.82928        1.46777       -0.20875
C          4.53256       -0.55803       -1.96050
H          1.88619       -0.54260       -1.39274
H          1.85681        1.87754        2.03912
C          4.49290        2.48589        2.22639
C          2.55773       -4.12408        1.71965
C          0.87974       -5.94914        1.75288
C          1.85395       -5.17022       -0.43994
C         -4.08879       -3.54150       -0.85845
C         -3.92885       -4.69430        1.38314
C         -4.45755       -2.27588        1.26384
C         -1.50437       -5.87115       -0.87050
H          3.29920       -4.88979        1.94664
H          3.06342       -3.35260        1.14085
H          2.22908       -3.68724        2.66229
H          0.08430       -6.47788        1.23361
H          1.69214       -6.65630        1.91842
H          0.49594       -5.63965        2.72441
H          2.19822       -4.31282       -1.01684
H          2.68007       -5.87588       -0.35622
H          1.06027       -5.64985       -1.00658
H         -3.90911       -2.61721       -1.40736
H         -3.54966       -4.33609       -1.36775
H         -5.15345       -3.76651       -0.91489
H         -3.57203       -4.61244        2.40928
H         -4.99903       -4.89777        1.41122
H         -3.44299       -5.55425        0.92946
H         -4.07108       -2.04060        2.25519
H         -4.44616       -1.36824        0.66304
H         -5.50056       -2.57253        1.37220
H         -0.82116       -6.71082       -0.99685
H         -2.50809       -6.21205       -1.12333
H         -1.21509       -5.06006       -1.54007
C          5.96635        2.59758       -1.06172
C          5.99692       -0.85445       -1.58925
C          3.85133       -1.92314       -2.20898
C          4.46807        0.26755       -3.25416
C          3.75970        2.36818        3.58229
C          5.93610        2.00002        2.45322
C          4.49279        3.96082        1.79729
H          6.57154        0.06076       -1.47353
H          6.05047       -1.40285       -0.64934
H          6.48288       -1.45301       -2.35936
H          4.42350       -2.51776       -2.92067
H          3.77894       -2.48989       -1.28160
H          2.84998       -1.80859       -2.62085
H          3.43311        0.44643       -3.54481
H          4.94813        1.23532       -3.12848
H          4.96395       -0.25143       -4.07397
H          2.77970        2.84235        3.55368
H          3.62852        1.32344        3.86301
H          4.32789        2.85791        4.37282
H          6.41462        2.55561        3.25934
H          5.94825        0.94274        2.71589
H          6.54277        2.12893        1.56022
H          4.97136        4.58647        2.55029
H          3.47393        4.32102        1.65660
H          5.02521        4.09854        0.85939
H          6.49331        2.31046       -1.97138
H          4.98612        2.99903       -1.32180
H          6.55213        3.36580       -0.55704
