111
-148.55360450
P         -2.68271        1.96576       -0.26453
P          0.06405        0.53309        0.37026
C         -1.90995        2.18055        1.36301
C         -0.68841        1.59481        1.61563
C         -3.51366        3.52033       -0.83029
C         -2.71043        4.22504       -1.90166
C         -2.53593        2.91641        2.34892
H         -3.50009        3.35676        2.15465
C         -1.92932        3.06952        3.58387
H         -2.41745        3.64389        4.35425
C         -0.70166        2.48551        3.83162
H         -0.23140        2.60241        4.79410
C         -0.08065        1.74103        2.84478
H          0.86905        1.26214        3.02584
Pd        -1.07769        0.96293       -1.59522
Cl        -2.51340        1.28782       -3.28841
Cl         0.62356        0.03902       -2.73216
C         -4.89861        3.02085       -1.28144
C         -4.12375        0.80406       -0.25931
H         -3.20278        5.14304       -2.23082
H         -1.71182        4.48484       -1.54232
H         -2.58652        3.58708       -2.77752
H         -4.86038        2.80207       -2.35751
H         -5.65026        3.81680       -1.16757
H         -3.97712        0.13586       -1.11854
C         -5.32241        1.73876       -0.50843
C         -4.19306        0.01344        1.02930
H         -3.61151        4.15924        0.05657
H         -5.75704        2.02212        0.46003
H         -6.12055        1.20302       -1.04443
H         -4.27243        0.68037        1.88974
H         -5.05867       -0.65292        1.04363
H         -3.29663       -0.59458        1.16753
C         -1.19710       -3.78940        1.05169
C         -0.55982       -3.41542       -0.15890
C         -0.20909       -2.08799       -0.32871
C         -0.39767       -1.17098        0.67019
C         -0.91144       -1.54883        1.88256
C         -1.28943       -2.85971        2.11938
O         -1.77740       -5.07930        1.18025
C         -0.28054       -4.40874       -1.29686
H          0.20011       -1.73751       -1.26022
H         -1.02653       -0.79724        2.64330
C         -1.82054       -3.24524        3.50894
C          4.58430        0.98050        0.05996
C          3.73642        1.96041       -0.52231
C          2.36651        1.81750       -0.36981
C          1.83718        0.71621        0.24983
C          2.64634       -0.29379        0.70120
C          4.02399       -0.21410        0.58502
O          5.97578        1.22686        0.18460
C          4.24889        3.15214       -1.34872
H          1.69175        2.56811       -0.74622
H          2.18575       -1.15980        1.14563
C          4.85298       -1.44060        1.00245
C         -1.47753       -4.42539       -2.25955
C          0.98120       -3.98995       -2.08615
C         -0.01688       -5.82271       -0.74869
C         -3.34302       -3.04321        3.54748
C         -1.47004       -4.70493        3.85033
C         -1.17941       -2.36068        4.60255
C         -3.13267       -5.14789        0.75464
H         -1.30366       -5.11253       -3.08714
H         -2.38801       -4.73414       -1.75150
H         -1.65046       -3.43290       -2.67527
H          0.82315       -3.06673       -2.64143
H          1.82723       -3.84574       -1.41514
H          1.25594       -4.75557       -2.81125
H          0.24264       -6.51221       -1.55162
H          0.80519       -5.80951       -0.03378
H         -0.89209       -6.22209       -0.24255
H         -3.74797       -3.31377        4.52228
H         -3.59887       -2.00183        3.35434
H         -3.84105       -3.65127        2.79614
H         -1.78830       -4.95839        4.86125
H         -1.95581       -5.39929        3.16932
H         -0.39486       -4.86727        3.78229
H         -1.45347       -2.71470        5.59612
H         -0.09235       -2.37971        4.52851
H         -1.51063       -1.32573        4.53015
H         -3.75853       -5.48465        1.58093
H         -3.47480       -4.16969        0.41412
H         -3.22535       -5.86825       -0.05791
C          6.30959        1.88994        1.39226
C          3.42211        3.26505       -2.64928
C          4.09008        4.44650       -0.53479
C          5.72042        2.98460       -1.76573
C          4.87019       -1.54845        2.53586
C          4.21263       -2.71696        0.41168
C          6.29684       -1.37697        0.47504
H          3.44587        2.32623       -3.20188
H          2.38055        3.50937       -2.44803
H          3.81923        4.04686       -3.29615
H          4.67580        4.40854        0.38179
H          4.42162        5.31094       -1.10948
H          3.04864        4.60694       -0.25759
H          6.37881        2.99554       -0.90026
H          5.86689        2.03806       -2.28486
H          6.03513        3.78953       -2.42949
H          5.33157       -0.67149        2.98613
H          3.85846       -1.63236        2.93166
H          5.43059       -2.42565        2.85823
H          4.82522       -3.59296        0.62326
H          3.22430       -2.90555        0.82764
H          4.11260       -2.62992       -0.66985
H          6.83804       -2.29597        0.69882
H          6.84530       -0.55379        0.92691
H          6.30515       -1.23100       -0.60455
H          5.80178        2.85180        1.44284
H          6.00515        1.28650        2.24600
H          7.38751        2.04885        1.42900
