59
-75.80933953
Cl         1.65538        0.46105        2.34027
P          1.60290       -0.10777       -0.88670
P         -1.61867       -0.04704       -0.77903
C          0.57253        0.21019       -2.38519
H          0.33964        1.27617       -2.44045
H          1.15740       -0.04419       -3.27468
C         -0.68397       -0.60375       -2.27149
H         -0.44762       -1.66487       -2.15527
H         -1.33012       -0.50141       -3.14896
C          2.63218       -1.62008       -1.21490
H          2.50091       -1.80214       -2.29023
C          2.96244        1.12975       -0.64394
H          3.03472        1.28720        0.43914
C         -3.03777       -1.17320       -0.39487
H         -3.24079       -1.01840        0.67235
C         -2.63039        1.43992       -1.23334
H         -2.05360        2.03797       -1.94949
C          4.07340       -1.14644       -0.95678
H          4.36578       -1.40534        0.06801
H          4.77669       -1.68931       -1.60631
C          4.20972        0.38699       -1.15258
H          4.34465        0.61126       -2.21970
H          5.11334        0.76949       -0.65376
C         -4.19406       -0.60814       -1.24989
H         -4.45305       -1.33762       -2.03016
H         -5.10010       -0.51825       -0.63256
C         -3.85055        0.76891       -1.89947
H         -4.71821        1.44405       -1.85558
H         -3.64658        0.62797       -2.97212
C          2.20062       -2.86030       -0.43278
H          2.79811       -3.71830       -0.77108
H          1.16793       -3.10644       -0.71198
C          2.69934        2.45882       -1.34121
H          3.61558        3.06506       -1.31456
H          2.51046        2.27083       -2.40602
C         -2.72243       -2.64181       -0.64719
H         -3.64777       -3.22867       -0.56253
H         -2.39989       -2.76354       -1.68909
C         -3.01273        2.28330       -0.01809
H         -3.84675        2.94422       -0.29272
H         -3.41668        1.61760        0.75592
C          2.30809       -2.73766        1.08037
H          3.34308       -2.63613        1.40916
H          1.89681       -3.61244        1.58961
H          1.77015       -1.86656        1.45123
C          1.54744        3.23336       -0.72171
H          0.62326        2.65646       -0.75331
H          1.36272        4.17914       -1.23609
H          1.74429        3.46129        0.32763
C         -1.67295       -3.18877        0.30725
H         -1.42696       -4.23212        0.09731
H         -2.01340       -3.13158        1.34290
H         -0.74967       -2.61282        0.24750
C         -1.87214        3.11581        0.54526
H         -1.05360        2.48834        0.89617
H         -1.46652        3.79199       -0.20948
H         -2.19271        3.72606        1.39266
Cl        -1.61339        0.07558        2.33844
Pd         0.05079        0.06654        0.82841
