58
-89.86597275
P          1.60775        0.20654        0.81361
C          1.95396        1.90089        0.32812
C          3.20467        2.25701       -0.12180
C          3.44875        3.56007       -0.51652
C          2.43544        4.49693       -0.46191
C          1.17974        4.13317       -0.01773
C          0.94048        2.82952        0.37625
H         -0.04048        2.52716        0.70148
H          3.98230        1.51251       -0.17210
C          3.10802       -0.78643        0.79401
C          3.25272       -1.83571       -0.08493
C          4.40816       -2.59528       -0.06912
C          5.41501       -2.29753        0.82740
C          5.26925       -1.24239        1.70592
C          4.11092       -0.48564        1.68860
H          3.98677        0.34352        2.36731
H          2.46996       -2.04741       -0.79417
C          0.89885        0.14490        2.50775
C          0.24227       -1.21118        2.75163
C         -1.24855       -1.23992        2.44829
P         -1.71122       -0.61601        0.77226
C         -3.08058       -1.60745        0.17272
C         -2.86364       -2.93063       -0.13544
C         -3.90878       -3.70607       -0.60571
C         -5.16277       -3.14896       -0.76211
C         -5.37487       -1.82031       -0.45067
C         -4.32801       -1.04740        0.01838
H         -4.47664       -0.00764        0.26105
H         -1.87598       -3.34817       -0.01647
C         -2.13251        1.13736        0.75012
C         -2.22220        1.89858        1.89408
C         -2.50558        3.24891        1.80054
C         -2.70209        3.83027        0.56365
C         -2.62054        3.06381       -0.58122
C         -2.33529        1.71475       -0.48334
H         -2.25320        1.10126       -1.36696
H         -2.07489        1.44309        2.85855
Pd         0.04192       -0.47049       -0.75506
Cl         1.68109       -0.18537       -2.26529
Cl        -1.48878       -1.00548       -2.31502
H         -1.64076       -2.25728        2.52352
H         -1.80540       -0.64709        3.17525
H          0.75875       -1.96503        2.13924
H          0.40567       -1.53013        3.79333
H          1.72511        0.33286        3.19735
H          0.18915        0.96294        2.63262
H          4.42685        3.84134       -0.87073
H          0.38450        4.85952        0.01583
H          4.52366       -3.41421       -0.76003
H          6.05569       -1.00785        2.40436
H         -3.74216       -4.74151       -0.85333
H         -6.35263       -1.38481       -0.57556
H         -2.57238        3.84760        2.69416
H         -2.77196        3.51446       -1.54821
H          2.62340        5.51188       -0.77215
H          6.31697       -2.88751        0.83938
H         -5.97685       -3.75161       -1.13065
H         -2.92077        4.88325        0.49201
