111
-148.55161416
P         -2.56086        2.08033        0.81954
P          0.15540        0.46465        0.44794
C         -1.43190        1.85481        2.22542
C         -0.23794        1.18944        2.04949
C         -3.51373        3.65881        1.00317
C         -3.42667        4.51233       -0.24236
C         -1.77095        2.33291        3.47561
H         -2.71385        2.83482        3.61719
C         -0.90780        2.15131        4.54249
H         -1.17314        2.52561        5.51777
C          0.29027        1.48812        4.36035
H          0.96096        1.34364        5.19130
C          0.62361        1.00047        3.10974
H          1.54658        0.46399        2.95335
Pd        -1.31298        1.46819       -1.03167
Cl        -2.94983        2.25655       -2.34012
Cl         0.02353        0.77913       -2.70434
C         -4.93992        3.16365        1.32229
C         -3.94740        0.85421        0.80792
H         -2.38874        4.73332       -0.50179
H         -3.87617        3.99695       -1.09209
H         -3.95502        5.46050       -0.11769
H         -5.67408        3.88474        0.93407
H         -5.09434        3.14186        2.41112
H         -3.83582        0.25678       -0.10759
C         -5.20313        1.74717        0.73789
C         -3.88739       -0.03668        2.02938
H         -3.07816        4.19491        1.85690
H         -6.03259        1.25683        1.26799
H         -5.53402        1.84230       -0.30685
H         -2.94101       -0.57978        2.07431
H         -3.97019        0.55546        2.94269
H         -4.69797       -0.76934        2.03319
C         -1.17700       -3.89138        0.30506
C         -1.00786       -3.25431        1.56150
C         -0.58718       -1.93486        1.57737
C         -0.41165       -1.23593        0.41213
C         -0.68104       -1.81607       -0.79867
C         -1.10182       -3.13016       -0.88887
O         -1.38079       -5.29552        0.24179
C         -1.23816       -3.98412        2.89420
H         -0.38057       -1.43442        2.50666
H         -0.54073       -1.22105       -1.68385
C         -1.43442       -3.70799       -2.27275
C          4.53820        0.73972       -0.76838
C          3.77832       -0.41679       -1.08528
C          2.44885       -0.44830       -0.70247
C          1.89005        0.57114        0.02245
C          2.64832        1.63851        0.42733
C          3.98986        1.72964        0.09120
O          5.80680        0.94142       -1.37014
C          4.33410       -1.64155       -1.83114
H          1.82414       -1.27749       -0.98575
H          2.17713        2.40980        1.01266
C          4.80497        2.88812        0.69149
C         -2.35365       -5.03699        2.76260
C          0.07117       -4.65250        3.33969
C         -1.68377       -2.99303        3.99355
C         -1.99474       -2.60477       -3.20051
C         -0.15506       -4.27759       -2.90462
C         -2.51357       -4.80117       -2.17474
C         -0.17930       -6.04906        0.13540
H         -2.07709       -5.82259        2.06377
H         -2.56274       -5.50864        3.72245
H         -3.27374       -4.57791        2.40240
H          0.85987       -3.91056        3.46268
H         -0.05790       -5.16917        4.29041
H          0.41206       -5.37923        2.60627
H         -1.95370       -3.52452        4.90583
H         -0.89050       -2.29419        4.25455
H         -2.55372       -2.42177        3.67180
H         -1.23498       -1.86890       -3.45923
H         -2.35622       -3.03197       -4.13548
H         -2.82669       -2.08481       -2.72623
H         -0.35741       -4.68866       -3.89326
H          0.60082       -3.49982       -3.01099
H          0.26940       -5.06903       -2.29137
H         -2.79392       -5.16498       -3.16291
H         -2.16451       -5.65356       -1.59755
H         -3.40861       -4.41359       -1.68924
H         -0.18551       -6.62054       -0.79254
H          0.68780       -5.38736        0.14877
H         -0.11399       -6.75081        0.96677
C          5.72497        1.63893       -2.60187
C          3.88116       -2.93285       -1.11225
C          3.78789       -1.65156       -3.26872
C          5.87191       -1.65909       -1.86196
C          4.49337        3.00619        2.20030
C          6.32200        2.66440        0.56388
C          4.41860        4.20253       -0.00622
H          4.17721       -2.91322       -0.06381
H          2.80127       -3.06509       -1.15498
H          4.33203       -3.81178       -1.57232
H          2.69836       -1.66406       -3.27077
H          4.10888       -0.76871       -3.81792
H          4.13535       -2.53001       -3.81181
H          6.24535       -2.57842       -2.31247
H          6.26424       -0.82646       -2.44091
H          6.27722       -1.58494       -0.85346
H          3.45581        3.28267        2.37993
H          4.68265        2.06022        2.70691
H          5.11703        3.76809        2.66726
H          6.87926        3.44577        1.08011
H          6.60613        1.70395        0.99245
H          6.63560        2.67060       -0.47728
H          4.64120        4.16362       -1.07071
H          4.96375        5.04434        0.41995
H          3.35320        4.40273        0.10296
H          5.10056        1.08737       -3.30270
H          5.28891        2.62406       -2.44552
H          6.72578        1.74972       -3.01975
