59
-75.80100567
Cl         1.73694        0.45261        2.29131
P          1.62577       -0.15062       -0.86702
P         -1.57077       -0.13301       -0.76179
C          0.59839        0.11761       -2.38150
H          0.36475        1.18189       -2.46211
H          1.19007       -0.15318       -3.26173
C         -0.66003       -0.69452       -2.26409
H         -0.42922       -1.75745       -2.15685
H         -1.31420       -0.58151       -3.13415
C          2.69947       -1.63457       -1.17705
H          2.54009       -1.86047       -2.24015
C          2.94397        1.13373       -0.65136
H          3.04419        1.28467        0.43022
C         -3.06468       -1.14618       -0.35520
H         -3.11895       -1.15098        0.74099
C         -2.42035        1.46502       -1.12976
H         -1.84811        1.98189       -1.90985
C          4.13050       -1.10031       -0.98366
H          4.47493       -1.33491        0.03066
H          4.82795       -1.62312       -1.65549
C          4.19944        0.43575       -1.20153
H          4.28324        0.65269       -2.27545
H          5.10582        0.85936       -0.74238
C         -4.24275       -0.33881       -0.95110
H         -4.79301       -0.97366       -1.65973
H         -4.96729       -0.10199       -0.15827
C         -3.78489        0.97440       -1.65428
H         -4.54258        1.76164       -1.53188
H         -3.71521        0.80133       -2.73917
C          2.33235       -2.85770       -0.33662
H          2.93958       -3.71132       -0.66864
H          1.29585       -3.13865       -0.56490
C          2.60895        2.45899       -1.32498
H          3.49830        3.10431       -1.30707
H          2.40873        2.27771       -2.38875
C         -2.94614       -2.57600       -0.86517
H         -3.91900       -3.07809       -0.76819
H         -2.73916       -2.55206       -1.94303
C         -2.50030        2.32322        0.12848
H         -3.11026        1.79643        0.87474
H         -1.50116        2.39526        0.57973
C          2.49139       -2.68069        1.16616
H          3.53268       -2.52742        1.45199
H          2.13489       -3.55342        1.71838
H          1.93129       -1.82022        1.52852
C          1.43552        3.17518       -0.67300
H          1.64235        3.39607        0.37586
H          0.53343        2.56324       -0.69534
H          1.20260        4.11999       -1.16922
C         -1.87703       -3.36960       -0.12903
H         -0.90814       -2.87300       -0.18570
H         -1.75814       -4.37700       -0.53415
H         -2.11847       -3.46676        0.93122
C         -3.05279        3.71885       -0.12315
H         -2.44643        4.25511       -0.85565
H         -4.07162        3.68436       -0.51180
H         -3.07302        4.31991        0.78880
Cl        -1.53236       -0.02390        2.41833
Pd         0.07344        0.00884        0.85353
