75
-122.81267648
P          1.92181       -0.52782       -0.16216
C          3.38314       -1.20382       -0.98167
C          3.59558       -1.06493       -2.33314
C          4.73206       -1.59044       -2.91634
C          5.66078       -2.25096       -2.13779
C          5.45444       -2.38199       -0.77921
C          4.31333       -1.85467       -0.20187
H          4.14196       -1.94934        0.85859
H          6.17994       -2.89400       -0.16866
H          6.54894       -2.66131       -2.59000
H          4.89496       -1.47912       -3.97581
H          2.87996       -0.52327       -2.92577
C          1.61893       -1.59842        1.24686
C          1.88224       -1.15941        2.52412
C          1.76686       -2.03487        3.58814
C          1.39424       -3.34533        3.36259
C          1.13232       -3.78116        2.07870
C          1.24919       -2.90359        1.01564
H          1.07049       -3.23320        0.00396
H          0.83865       -4.80302        1.90368
H          1.30039       -4.02777        4.19144
H          1.96659       -1.69378        4.59056
H          2.18079       -0.13571        2.68157
C          2.27156        1.15356        0.36234
C          3.43329        1.80996        0.03049
C          3.60870        3.14499        0.36811
C          2.56910        3.81300        1.01436
C          1.39567        3.16858        1.33910
C          1.24660        1.80758        1.02863
O          0.06990        1.10941        1.34347
C         -1.13507        1.78181        1.08387
C         -1.28842        3.14611        1.37707
C         -2.47706        3.77276        1.07558
C         -3.52506        3.08261        0.46789
C         -3.36032        1.73409        0.18519
C         -2.18429        1.09197        0.49480
P         -1.81678       -0.62478        0.07911
C         -1.77159       -1.58317        1.60606
C         -1.43219       -0.98480        2.79775
C         -1.49237       -1.70523        3.97584
C         -1.88644       -3.02813        3.95229
C         -2.21667       -3.63028        2.75445
C         -2.16139       -2.90318        1.57899
H         -2.43378       -3.35630        0.63919
H         -2.52137       -4.66369        2.73474
H         -1.92943       -3.59332        4.86897
H         -1.22336       -1.23663        4.90816
H         -1.10307        0.04038        2.79790
C         -3.12762       -1.34639       -0.92558
C         -4.41282       -1.34466       -0.43242
C         -5.43455       -1.91579       -1.16930
C         -5.15941       -2.49463       -2.39202
C         -3.86606       -2.51017       -2.87473
C         -2.84687       -1.93900       -2.13522
H         -1.83298       -1.95115       -2.50087
H         -3.64992       -2.96542       -3.82726
H         -5.95451       -2.93848       -2.96864
H         -6.44211       -1.91153       -0.78710
H         -4.60889       -0.91200        0.53618
Pd        -0.04318       -0.04354       -1.41215
Cl        -1.76012        0.91644       -2.53680
Cl         1.36708        0.93140       -2.87140
H         -4.14848        1.19433       -0.30817
C         -4.80456        3.76940        0.14669
H         -4.65606        4.84294        0.02367
H         -5.53543        3.61890        0.94219
H         -5.23159        3.38628       -0.78108
H         -2.59011        4.81729        1.30647
S          0.05790        4.02345        2.12893
H          2.67561        4.85611        1.25472
C          4.85229        3.86492       -0.01428
H          4.20074        1.28709       -0.51362
H          4.75886        4.29289       -1.01313
H          5.06739        4.67659        0.68190
H          5.71100        3.19228       -0.01499
