171
-217.84554597
P         -1.58085        0.42366       -0.36014
P          1.58723       -0.42974       -0.34761
C         -0.86424        1.35370       -1.71915
C          0.86584       -1.37767       -1.69449
C         -0.07690        0.72308       -2.67556
C          0.55205        1.50885       -3.66059
C          0.33202        2.87607       -3.67804
C         -0.48068        3.47756       -2.74060
C         -1.06842        2.71140       -1.75308
C          1.05044       -2.73898       -1.70340
C          0.45452       -3.51627       -2.67682
C         -0.34187       -2.92123       -3.63175
C         -0.54115       -1.55086       -3.64181
C          0.08973       -0.75553       -2.66566
Cl         1.63125        0.29944        2.80835
Cl        -1.56991       -0.30327        2.88394
C         -1.40697       -0.94602       -4.69128
C          1.43979        0.89809       -4.68809
H         -0.65091        4.54128       -2.77321
H         -1.68986        3.17435       -1.00346
H          1.66568       -3.19822       -0.94715
H          0.60794       -4.58301       -2.68658
H          0.80779        3.47147       -4.43901
H         -0.82057       -3.52410       -4.38497
C         -3.91742       -3.27799       -1.48783
C         -2.95203       -3.36855       -0.49211
C         -2.22605       -2.22526       -0.18963
C         -2.45989       -1.05179       -0.86147
C         -3.41627       -0.97634       -1.84353
C         -4.17065       -2.09610       -2.17460
H         -4.50667       -4.14315       -1.72655
H         -1.48752       -2.24358        0.59346
H         -3.57851       -0.03128       -2.33338
C         -4.33819        2.98740        2.17403
C         -4.88585        1.99036        1.37434
C         -4.02008        1.23349        0.59764
C         -2.66959        1.47473        0.61323
C         -2.14575        2.46899        1.40113
C         -2.97092        3.24011        2.20869
H         -4.99050        3.57347        2.79214
H         -4.40261        0.43478       -0.01345
H         -1.08048        2.62746        1.40765
C          4.36336       -2.96006        2.19832
C          3.00738       -3.26831        2.17684
C          2.18059       -2.50337        1.36482
C          2.68936       -1.46054        0.63209
C          4.02629       -1.15735        0.68222
C          4.89484       -1.90588        1.46367
H          5.01989       -3.55136        2.80676
H          1.12545       -2.71049        1.31240
H          4.39553       -0.31976        0.11679
C          3.88106        3.28768       -1.50966
C          2.88670        3.38807       -0.54385
C          2.16486        2.24230       -0.23939
C          2.44638        1.05304       -0.86431
C          3.43609        0.96745       -1.81188
C          4.17669        2.09258       -2.15497
H          4.45769        4.15804       -1.75961
H          1.38412        2.27186        0.50070
H          3.63318        0.01141       -2.26654
Pd        -0.00795       -0.00758        1.30188
C         -3.62664       -5.79678       -0.12698
C         -2.68097       -4.65704        0.29656
C         -2.88550       -4.38487        1.79938
C         -1.23088       -5.10456        0.04570
H         -3.42374       -6.70057        0.44750
H         -4.66841       -5.52480        0.04201
H         -3.49887       -6.04132       -1.18133
H         -2.71664       -5.28759        2.38614
H         -2.19998       -3.62032        2.16244
H         -3.90104       -4.04029        1.99299
H         -0.99518       -6.00469        0.61308
H         -1.07331       -5.31972       -1.01054
H         -0.52597       -4.32760        0.33717
C         -5.09940       -3.13600       -4.26794
C         -5.30735       -2.04053       -3.20511
C         -5.36496       -0.67453       -3.91697
C         -6.64690       -2.26874       -2.48092
H         -5.87700       -3.09091       -5.03027
H         -4.13612       -3.01817       -4.76264
H         -5.12789       -4.13097       -3.82582
H         -5.56372        0.12993       -3.20922
H         -4.42893       -0.45851       -4.43055
H         -6.16123       -0.65982       -4.66104
H         -7.48186       -2.22282       -3.17984
H         -6.67069       -3.24314       -1.99411
H         -6.80472       -1.50926       -1.71520
C         -7.19266        2.61943        2.25037
C         -6.38799        1.67559        1.33674
C         -6.61091        0.22647        1.80931
C         -6.90404        1.83305       -0.10605
H         -8.25652        2.38662        2.20555
H         -6.87812        2.52234        3.28929
H         -7.06928        3.65876        1.94643
H         -7.67149       -0.02428        1.81356
H         -6.10304       -0.48505        1.15901
H         -6.22605        0.08821        2.81944
H         -7.97360        1.63142       -0.16227
H         -6.73150        2.84635       -0.46818
H         -6.40030        1.14545       -0.78439
C         -3.40163        5.03059        3.96837
C         -2.33972        4.29185        3.13197
C         -1.57954        5.32574        2.28253
C         -1.35968        3.59065        4.09259
H         -2.93527        5.77188        4.61721
H         -4.11168        5.55332        3.32778
H         -3.95249        4.33722        4.60360
H         -0.77641        4.85439        1.71950
H         -2.24904        5.80927        1.57142
H         -1.13611        6.09831        2.91047
H         -0.90591        4.30510        4.77899
H         -1.87564        2.83363        4.68262
H         -0.55643        3.09505        3.54870
C          2.14191       -5.60781        2.02877
C          2.41331       -4.43263        2.98269
C          1.09397       -3.99053        3.64976
C          3.37489       -4.89964        4.09312
H          1.69243       -6.44740        2.55870
H          1.46531       -5.31120        1.22869
H          3.06770       -5.95300        1.56885
H          1.24973       -3.09957        4.25770
H          0.32608       -3.76318        2.91225
H          0.70163       -4.77592        4.29543
H          2.91119       -5.67204        4.70662
H          4.28832       -5.32225        3.67580
H          3.64452       -4.07089        4.74759
C          6.95986       -1.62327        0.07009
C          6.38238       -1.52771        1.49477
C          7.19048       -2.46186        2.41530
C          6.52474       -0.08433        2.01400
H          6.45055       -0.94152       -0.60992
H          8.02031       -1.37200        0.06087
H          6.84810       -2.63327       -0.32372
H          7.12954       -3.49580        2.07616
H          8.24319       -2.17950        2.42443
H          6.82704       -2.41155        3.44152
H          7.57283        0.20901        2.07029
H          6.01546        0.62400        1.36139
H          6.09256        0.01000        3.00995
C          2.43181        4.46104        1.68909
C          2.55729        4.70630        0.17145
C          1.22739        5.24804       -0.37581
C          3.65562        5.76361       -0.05360
H          2.25406        5.39545        2.22113
H          1.60583        3.79090        1.92187
H          3.34505        4.01628        2.08367
H          0.42663        4.52396       -0.23302
H          0.94326        6.17311        0.12543
H          1.30658        5.45178       -1.44333
H          4.62712        5.39176        0.27175
H          3.72611        6.04337       -1.10437
H          3.44013        6.67085        0.51078
C          5.13766        3.09682       -4.25158
C          5.33907        2.03253       -3.15613
C          5.43730        0.65062       -3.83185
C          6.65618        2.30416       -2.40642
H          4.18978        2.94786       -4.76714
H          5.13632        4.10305       -3.83478
H          5.93515        3.04762       -4.99282
H          5.63627       -0.13205       -3.10017
H          4.51606        0.40419       -4.35863
H          6.24903        0.63276       -4.55897
H          6.65030        3.29109       -1.94493
H          6.80907        1.56799       -1.61738
H          7.50863        2.25592       -3.08373
H         -1.76294        0.04138       -4.39418
H          0.92326        0.80493       -5.64429
H         -2.28185       -1.56886       -4.87918
H         -0.86443       -0.84168       -5.63176
H          1.77567       -0.09482       -4.38600
H          2.32732        1.51105       -4.84706
