111
-148.55548211
P         -2.37549        2.22252        0.64251
P          0.09506        0.22284        0.42624
C         -1.40700        1.81526        2.11752
C         -0.34249        0.94733        2.01806
C         -2.80912        4.02087        0.63269
C         -2.39403        4.66480       -0.67196
C         -1.73499        2.36525        3.34022
H         -2.56762        3.04594        3.41162
C         -0.99571        2.03822        4.46392
H         -1.25130        2.46743        5.41894
C          0.06611        1.16007        4.36311
H          0.64008        0.90239        5.23794
C          0.39177        0.61050        3.13600
H          1.21558       -0.07964        3.04009
Pd        -1.26954        1.27286       -1.14220
Cl        -2.88437        1.99005       -2.51830
Cl         0.05867        0.40506       -2.72859
C         -4.33373        4.01293        0.87060
C         -4.06774        1.47203        0.64431
H         -1.32063        4.55660       -0.84551
H         -2.91132        4.19764       -1.51161
H         -2.63451        5.73055       -0.68830
H         -4.78904        4.87372        0.35941
H         -4.54702        4.15761        1.93990
H         -4.10343        0.76970       -0.19957
C         -4.98582        2.68532        0.39153
C         -4.34202        0.75045        1.94642
H         -2.27607        4.48326        1.47445
H         -5.95270        2.52526        0.89058
H         -5.21464        2.76098       -0.68178
H         -4.30869        1.44634        2.78637
H         -5.32956        0.28288        1.94609
H         -3.59757       -0.02704        2.13468
C         -1.27643       -4.12146        0.54186
C         -2.13366       -3.11427        0.02501
C         -1.68280       -1.80507        0.03335
C         -0.40577       -1.49609        0.42430
C          0.46657       -2.48037        0.81033
C          0.07533       -3.80942        0.84559
O         -1.79118       -5.41260        0.82589
C         -3.52091       -3.39209       -0.57987
H         -2.33978       -1.00736       -0.26665
H          1.46346       -2.19605        1.10120
C          1.13230       -4.86583        1.21086
C          4.45940        0.96840       -0.66123
C          3.75500       -0.09649       -1.27810
C          2.43358       -0.30406       -0.91789
C          1.83085        0.46138        0.04565
C          2.53785        1.42914        0.71152
C          3.86914        1.67424        0.41813
O          5.73420        1.35846       -1.15112
C          4.37456       -0.97421       -2.37673
H          1.83782       -1.04797       -1.41783
H          2.02779        2.00549        1.46356
C          4.63755        2.71403        1.24917
C         -3.73437       -4.88420       -0.88809
C         -4.61285       -2.90468        0.38587
C         -3.65619       -2.63056       -1.91809
C          0.69267       -6.29048        0.82994
C          2.43732       -4.57837        0.43763
C          1.41837       -4.80150        2.72005
C         -2.34525       -5.51076        2.12736
H         -4.67934       -5.04742       -1.40570
H         -2.93106       -5.26494       -1.51786
H         -3.75228       -5.47642        0.02374
H         -4.55341       -3.42033        1.34229
H         -4.51362       -1.83718        0.57633
H         -5.60533       -3.07929       -0.02876
H         -4.59672       -2.87477       -2.41104
H         -3.63693       -1.55147       -1.77543
H         -2.84348       -2.89423       -2.59420
H         -0.16711       -6.60777        1.41519
H          0.41645       -6.33859       -0.22281
H          1.49311       -7.00891        1.00519
H          2.24479       -4.53767       -0.63401
H          2.88632       -3.63391        0.74007
H          3.17580       -5.35946        0.61671
H          0.52389       -5.02012        3.29999
H          2.18558       -5.52215        3.00203
H          1.76682       -3.81004        3.00790
H         -2.74597       -6.51417        2.27265
H         -1.57834       -5.31818        2.87565
H         -3.14490       -4.78231        2.24987
C          5.68294        2.36325       -2.15655
C          5.89276       -1.13472       -2.17815
C          3.76962       -2.39505       -2.34730
C          4.08043       -0.34400       -3.74669
C          6.13208        2.35609        1.34186
C          4.46400        4.10297        0.61651
C          4.09626        2.75973        2.69671
H          6.10973       -1.53637       -1.18891
H          6.31522       -1.81239       -2.91964
H          6.40949       -0.18317       -2.27178
H          2.71476       -2.39361       -2.61694
H          4.27957       -3.04741       -3.05580
H          3.87318       -2.83380       -1.35616
H          3.00590       -0.25761       -3.90679
H          4.50583        0.65408       -3.82049
H          4.49520       -0.94849       -4.55281
H          6.26208        1.35505        1.75176
H          6.60751        2.38013        0.36453
H          6.66403        3.05752        1.98413
H          4.98496        4.86404        1.19690
H          4.85695        4.12683       -0.39702
H          3.41009        4.37625        0.57000
H          4.71900        3.39857        3.32254
H          4.08804        1.76379        3.13891
H          3.08484        3.16119        2.73783
H          6.11534        1.98038       -3.08076
H          4.65113        2.66701       -2.33780
H          6.26692        3.22730       -1.83990
