111
-148.55242103
P         -2.53259        2.08328        0.48821
P          0.07389        0.29602        0.63950
C         -1.81898        1.67022        2.10154
C         -0.67354        0.90673        2.16080
C         -2.95637        3.88194        0.38135
C         -2.15583        4.56561       -0.70559
C         -2.40566        2.12272        3.26587
H         -3.29225        2.73317        3.21282
C         -1.84879        1.79465        4.48998
H         -2.30766        2.14514        5.40005
C         -0.70617        1.01962        4.54663
H         -0.27377        0.76268        5.49962
C         -0.11607        0.57421        3.37729
H          0.77553       -0.03221        3.40306
Pd        -1.07125        1.28827       -1.11585
Cl        -2.51357        1.95255       -2.69720
Cl         0.54434        0.55315       -2.49029
C         -4.48075        3.87787        0.13445
C         -4.19001        1.33341        0.14851
H         -2.38323        5.63289       -0.76015
H         -1.08159        4.45651       -0.53735
H         -2.38213        4.13156       -1.68068
H         -4.74326        4.70367       -0.54245
H         -5.01285        4.08781        1.07384
H         -4.03233        0.54317       -0.59838
C         -4.97515        2.52135       -0.44381
C         -4.81295        0.76614        1.40580
H         -2.71578        4.31688        1.36103
H         -6.05001        2.38555       -0.25347
H         -4.86455        2.53098       -1.53825
H         -4.99856        1.55721        2.13413
H         -5.76992        0.28206        1.19676
H         -4.15745        0.03307        1.87857
C         -1.34405       -3.89905       -0.39464
C         -0.09529       -3.44203       -0.88852
C          0.31600       -2.16477       -0.54659
C         -0.42015       -1.39208        0.31218
C         -1.57448       -1.86884        0.87679
C         -2.04007       -3.13975        0.58122
O         -1.92395       -5.08428       -0.91956
C          0.78577       -4.27832       -1.82853
H          1.20431       -1.73794       -0.97929
H         -2.11980       -1.22321        1.54250
C         -3.30657       -3.65246        1.28377
C          4.58388        0.85474        0.36266
C          4.05915       -0.25474        1.07413
C          2.68313       -0.40620        1.13329
C          1.84630        0.53198        0.58715
C          2.34768        1.66340       -0.00074
C          3.71293        1.87183       -0.10384
O          5.97563        0.92816        0.08825
C          4.95993       -1.30065        1.75027
H          2.24302       -1.27268        1.59609
H          1.65060        2.37723       -0.40513
C          4.21961        3.16347       -0.76415
C          0.43433       -3.93754       -3.28458
C          2.27970       -3.96342       -1.58966
C          0.60237       -5.78586       -1.57627
C         -4.54291       -3.18596        0.50036
C         -3.30226       -5.18789        1.39880
C         -3.38717       -3.09889        2.72457
C         -2.75333       -4.86041       -2.05324
H          1.05453       -4.50328       -3.97926
H         -0.60715       -4.16457       -3.50093
H          0.58913       -2.87656       -3.47959
H          2.53328       -4.08716       -0.53740
H          2.91448       -4.63411       -2.16826
H          2.53329       -2.94720       -1.88734
H          0.80348       -6.02743       -0.53311
H         -0.41130       -6.10626       -1.80283
H          1.27933       -6.37224       -2.19706
H         -4.56679       -2.09924        0.42803
H         -4.53941       -3.58347       -0.51212
H         -5.46109       -3.51273        0.98771
H         -4.16768       -5.54126        1.95887
H         -3.33013       -5.65992        0.42006
H         -2.40366       -5.53186        1.90982
H         -2.47210       -3.31795        3.27416
H         -3.54258       -2.02212        2.73866
H         -4.21901       -3.54894        3.26594
H         -2.36679       -5.41812       -2.90611
H         -3.76346       -5.21201       -1.84381
H         -2.78259       -3.79781       -2.29803
C          6.35916        0.31140       -1.13454
C          6.25481       -0.65643        2.27819
C          4.24452       -1.93408        2.96509
C          5.29413       -2.41379        0.74619
C          4.34273        2.93950       -2.27923
C          3.23146        4.32668       -0.51816
C          5.57488        3.59675       -0.17666
H          6.02589        0.16222        2.95964
H          6.86421       -1.38376        2.81402
H          6.85814       -0.25627        1.46712
H          4.92425       -2.57982        3.52062
H          3.88244       -1.16455        3.64642
H          3.39896       -2.54859        2.65948
H          5.92569       -3.17534        1.20296
H          4.38463       -2.89750        0.39286
H          5.81722       -2.02007       -0.12156
H          3.37967        2.65939       -2.70561
H          4.68510        3.84367       -2.78179
H          5.04675        2.14213       -2.50435
H          2.29099        4.17620       -1.04614
H          3.01614        4.43424        0.54462
H          3.64826        5.26930       -0.87223
H          5.90153        4.54493       -0.60300
H          6.34962        2.86181       -0.37921
H          5.50359        3.71711        0.90379
H          6.80830        1.05326       -1.79453
H          7.10266       -0.46052       -0.93651
H          5.49216       -0.13375       -1.62441
