45
-71.81567059
C          2.25885        1.26199        2.46163
P          1.50775        0.88016        0.84433
P         -1.03292        0.16222       -0.91803
C         -0.40862       -0.34151       -2.55685
Cl         1.46521       -1.91459        2.26693
H          1.48402        1.52990        3.17424
H          0.65554       -0.13448       -2.62517
Cl        -1.24910       -2.70752        0.36031
C          0.45368        2.20483        0.21589
C         -0.63427        1.88696       -0.56843
C         -1.42786        2.88503       -1.09481
C         -1.12612        4.21047       -0.83570
C         -0.03162        4.52991       -0.05558
C          0.76274        3.52545        0.46906
H         -2.27799        2.61974       -1.70288
H         -1.74437        4.99265       -1.24452
H          0.20633        5.56207        0.14248
H          1.62624        3.76392        1.06850
Pd         0.13303       -0.98019        0.72135
H         -0.92574        0.20988       -3.33691
H          2.95600        2.08925        2.36442
H         -0.56873       -1.40571       -2.70466
C         -5.46933       -0.59656       -0.25783
C         -4.72743        0.09290        0.68064
C         -3.38049        0.32110        0.46092
C         -2.78784       -0.13765       -0.69359
C         -3.52220       -0.82904       -1.62995
C         -4.86891       -1.05848       -1.41248
H         -6.51801       -0.77763       -0.08717
H         -5.19416        0.44987        1.58396
H         -2.78516        0.85408        1.18603
H         -3.04154       -1.19290       -2.52337
H         -5.44728       -1.60117       -2.14208
C          4.54670       -0.33265       -2.30862
C          3.82622        0.83577       -2.46406
C          2.90946        1.21357       -1.49968
C          2.72614        0.42351       -0.38837
C          3.43198       -0.74703       -0.23453
C          4.35010       -1.12709       -1.19590
H          5.26108       -0.62753       -3.05984
H          3.97624        1.45184       -3.33539
H          2.33357        2.11825       -1.60948
H          3.23504       -1.36810        0.62475
H          4.90435       -2.04384       -1.07943
H          2.79371        0.39252        2.83294
