72
-108.40159367
Cl        -1.82946        0.79341        2.66830
Cl         0.91839       -0.84377        2.79437
P          1.10061       -1.15715       -0.26179
P         -2.24094        0.15695       -0.39646
C         -3.24606       -1.44102       -0.19775
C         -3.63021       -1.61255        1.27331
C         -4.49605       -1.38830       -1.06913
C         -3.32839        1.70312       -0.15385
C         -4.10983        2.00863       -1.43875
C         -1.39941        0.47211       -2.05798
C         -1.47532       -0.67191       -3.04805
C          1.16205        0.18374       -1.48761
C          0.02950        0.98019       -1.95873
C          0.57144        2.04017       -2.81351
C          2.01235        1.89358       -2.87221
C          2.37254        0.76238       -2.03928
C         -2.38196       -2.62953       -0.59417
H         -4.30696       -0.83545        1.61783
H         -4.13594       -2.56707        1.42804
H         -5.18698       -0.61728       -0.73286
H         -5.03077       -2.33867       -1.02929
C         -4.31676        1.55501        0.99929
H         -3.47558        2.43732       -2.21381
H         -4.89358        2.74228       -1.24273
H         -1.98243        1.30064       -2.47031
H         -0.83621       -1.49294       -2.73083
H         -1.11296       -0.36266       -4.03065
H         -2.49055       -1.04472       -3.17728
H         -0.02244        2.74659       -3.39686
H          2.70188        2.51643       -3.44582
Pd        -0.51843       -0.23143        1.17430
H          3.38204        0.39383       -1.84462
C         -2.36785        2.84547        0.14237
H         -4.58681        1.11839       -1.84460
H         -4.81145        2.50634        1.20031
H         -5.09969        0.83535        0.76794
H         -3.81859        1.25216        1.91770
H         -1.58544        2.90495       -0.61553
H         -2.89282        3.80262        0.16091
H         -1.90065        2.70967        1.11675
H         -2.75057       -1.60067        1.91694
H         -4.25049       -1.19248       -2.11166
H         -2.90515       -3.56870       -0.40628
H         -2.12192       -2.61616       -1.64936
H         -1.46515       -2.64335       -0.00753
C          2.76206       -1.26733        0.45548
C          3.19352       -2.26054        1.29935
C          4.51745       -1.97214        1.63007
C          4.84243       -0.81306        0.97011
O          3.77432       -0.37029        0.24486
H          2.60867       -3.09160        1.65687
H          5.15804       -2.54487        2.28063
H          5.80018       -0.30907        1.01021
C          0.71756       -2.75720       -0.99702
C          0.63591       -3.92428       -0.27797
C          0.32438       -4.94033       -1.18242
C          0.22902       -4.34928       -2.41837
O          0.46395       -3.00751       -2.31804
H          0.76573       -4.02524        0.78740
H          0.18491       -5.98453       -0.95489
H         -0.00089       -4.85779       -3.34645
Fe         1.34939        2.09956       -0.91748
C          2.23129        3.87075       -0.45465
C          2.99018        2.73000        0.03525
C          2.18575        2.00103        0.99790
C          0.86971        2.60933        0.94457
C          0.91663        3.83124        0.15697
H          2.59926        4.64234       -1.13519
H          4.03313        2.50891       -0.20578
H          2.45873        1.08726        1.52841
H          0.04239        2.30502        1.58881
H          0.10858        4.55084        0.01026
