111
-148.55132568
P         -2.42467        2.17381       -0.38936
P          0.02387        0.34608        0.52747
C         -1.79057        2.28082        1.30506
C         -0.73781        1.48358        1.69919
C         -2.56068        3.86160       -1.13617
C         -1.66942        3.98680       -2.35264
C         -2.35271        3.17033        2.19839
H         -3.15796        3.81034        1.87677
C         -1.87296        3.24292        3.49461
H         -2.31400        3.93507        4.19323
C         -0.83014        2.42925        3.89284
H         -0.45766        2.48278        4.90260
C         -0.25974        1.54854        2.99119
H          0.55613        0.90947        3.28838
Pd        -1.12713        0.60447       -1.47983
Cl        -2.46111        0.93483       -3.25119
Cl         0.18562       -0.99536       -2.34090
C         -4.06828        4.00370       -1.43841
C         -4.18475        1.61474       -0.52336
H         -0.62544        3.78004       -2.10413
H         -1.97049        3.27699       -3.12460
H         -1.72230        4.98777       -2.78752
H         -4.20154        4.56599       -2.37386
H         -4.55074        4.61181       -0.65928
H         -4.15992        0.60009       -0.94342
C         -4.77933        2.62348       -1.52672
C         -4.87956        1.61956        0.82216
H         -2.24492        4.57123       -0.35923
H         -5.85942        2.72956       -1.34764
H         -4.68362        2.23027       -2.54959
H         -4.31890        1.04608        1.56302
H         -4.97568        2.63779        1.20215
H         -5.88629        1.20008        0.75594
C         -1.24256       -3.98805        1.09734
C          0.11982       -3.64266        1.30521
C          0.49505       -2.32042        1.13120
C         -0.43740       -1.35115        0.86821
C         -1.77374       -1.65781        0.81724
C         -2.21551       -2.96368        0.95665
O         -1.61260       -5.34735        0.93135
C          1.20384       -4.64560        1.73531
H          1.53273       -2.04038        1.17807
H         -2.47469       -0.86123        0.63014
C         -3.73080       -3.22084        0.91934
C          4.46440        1.23637       -0.04659
C          3.54825        1.44274       -1.10800
C          2.20976        1.17424       -0.87842
C          1.78160        0.64122        0.31019
C          2.68180        0.33620        1.29943
C          4.03575        0.58532        1.13807
O          5.79563        1.71918       -0.15637
C          3.97824        1.96601       -2.48759
H          1.47759        1.38387       -1.63815
H          2.31140       -0.09066        2.21449
C          5.01147        0.18514        2.25647
C          2.20369       -4.84314        0.58353
C          1.94536       -4.08363        2.96660
C          0.62348       -6.00997        2.14650
C         -4.10132       -4.63202        1.40754
C         -4.44392       -2.21998        1.85275
C         -4.24267       -3.02322       -0.51767
C         -1.49016       -5.78152       -0.41303
H          2.99123       -5.54098        0.86671
H          1.70731       -5.23715       -0.30166
H          2.67519       -3.90058        0.30761
H          2.70714       -4.78036        3.31545
H          2.44023       -3.14179        2.74095
H          1.24929       -3.90679        3.78611
H          0.17135       -6.51863        1.29857
H          1.39947       -6.66238        2.54627
H         -0.14407       -5.88692        2.90979
H         -5.18243       -4.75733        1.46284
H         -3.71620       -5.39542        0.73571
H         -3.68585       -4.81767        2.39736
H         -5.51339       -2.42400        1.89868
H         -4.04430       -2.28438        2.86439
H         -4.32385       -1.19602        1.50723
H         -5.32058       -3.17302       -0.57194
H         -4.02528       -2.01713       -0.87462
H         -3.77081       -3.72526       -1.20243
H         -0.46591       -5.64527       -0.75758
H         -1.75665       -6.83673       -0.47668
H         -2.15407       -5.20281       -1.05335
C          5.96439        3.05478        0.30216
C          3.90137        3.50002       -2.49851
C          5.40488        1.50349       -2.83493
C          3.04541        1.41657       -3.59189
C          6.40752       -0.14010        1.69355
C          5.10653        1.32887        3.27738
C          4.51855       -1.08775        2.97904
H          2.88874        3.83669       -2.27730
H          4.56469        3.93319       -1.75362
H          4.18420        3.89794       -3.47273
H          5.68573        1.81895       -3.83945
H          6.13522        1.91738       -2.14406
H          5.47791        0.41751       -2.78725
H          2.04296        1.83577       -3.52017
H          3.42622        1.66817       -4.58138
H          2.96730        0.33153       -3.52881
H          7.07391       -0.49535        2.47919
H          6.34202       -0.91333        0.92881
H          6.86901        0.73511        1.24363
H          5.46607        2.24330        2.81086
H          4.12946        1.54044        3.71119
H          5.78809        1.07333        4.08831
H          3.59612       -0.91039        3.52964
H          5.25885       -1.43503        3.69947
H          4.34718       -1.89124        2.26351
H          6.37554        3.66695       -0.50043
H          5.00856        3.47015        0.62391
H          6.66528        3.07060        1.13656
