87
-129.18385177
P         -1.53270       -0.30314       -0.38026
P          1.68461        0.38132        0.09426
C         -1.18556        0.93335       -1.63587
C          1.55340       -0.72214       -1.33544
C         -0.12076        0.73720       -2.50594
C          0.14693        1.71676       -3.48330
C         -0.66571        2.83621       -3.55592
C         -1.72043        3.00894       -2.68439
C         -1.97743        2.05190       -1.72282
C          2.28747       -1.88211       -1.25439
C          2.18990       -2.84657       -2.23777
C          1.33513       -2.65087       -3.29978
C          0.57641       -1.49783       -3.40052
C          0.69621       -0.50158       -2.41213
Cl         1.14627        0.28959        3.20227
Cl        -1.50026       -1.67690        2.57276
H         -2.33954        3.88856       -2.75033
H         -2.80326        2.17520       -1.04226
H          2.93809       -2.03972       -0.40998
H          2.76870       -3.75288       -2.16676
H         -0.45852        3.58285       -4.30366
H          1.24111       -3.40623       -4.06152
C         -2.21563       -4.34993       -2.32283
C         -1.31256       -4.24567       -1.27368
C         -1.13830       -3.00643       -0.67005
C         -1.82750       -1.90642       -1.12434
C         -2.71377       -2.01474       -2.17001
C         -2.91325       -3.24463       -2.76944
H         -2.36786       -5.30821       -2.78945
C         -0.56738       -5.43532       -0.78036
H         -0.45371       -2.90409        0.15498
H         -3.23550       -1.13655       -2.51706
H         -3.60768       -3.33820       -3.58820
C         -5.12112        1.01121        2.10295
C         -5.18587       -0.15959        1.37338
C         -4.10222       -0.56084        0.61528
C         -2.96602        0.21287        0.58759
C         -2.89818        1.37727        1.31739
C         -3.97378        1.79238        2.09192
H         -5.96503        1.32643        2.69259
H         -6.07880       -0.76252        1.39741
H         -4.13476       -1.47802        0.05054
H         -2.00271        1.97391        1.28546
C         -3.89724        3.06240        2.86390
C          5.67675       -0.29099        2.17905
C          5.49947        0.80891        1.36325
C          4.28338        1.01585        0.73950
C          3.25593        0.12215        0.93349
C          3.43141       -0.97513        1.74479
C          4.64327       -1.19350        2.38861
H          6.62375       -0.45577        2.66416
H          6.30750        1.50598        1.21277
H          4.12985        1.87204        0.10316
H          2.61512       -1.66193        1.89721
C          4.82933       -2.38773        3.25696
C          0.90554        4.79618       -0.64983
C          1.76581        4.10829       -1.48340
C          2.02175        2.76861       -1.25783
C          1.41285        2.13079       -0.20322
C          0.58536        2.82269        0.65123
C          0.31138        4.16737        0.43574
H          0.69078        5.83480       -0.83522
H          2.22652        4.61086       -2.31797
H          2.67538        2.21106       -1.90952
H          0.17554        2.32283        1.51208
C         -0.63209        4.89868        1.32410
Pd        -0.07247       -0.37698        1.44298
C          1.28500        1.57814       -4.43373
C         -0.35798       -1.34637       -4.55086
H          1.85581        2.50587       -4.49439
H          1.97163        0.78967       -4.12364
H          0.92734        1.33908       -5.43598
H         -1.09572       -0.56460       -4.36741
H          0.18451       -1.09286       -5.46237
H         -0.90337       -2.27363       -4.73207
H         -1.10941       -5.92224        0.03144
H         -0.42070       -6.16707       -1.57606
H          0.41746       -5.15226       -0.40553
H         -4.63278        3.08141        3.66922
H         -2.91103        3.18592        3.31387
H         -4.08311        3.92107        2.21718
H          5.08560       -3.26455        2.66066
H          5.62763       -2.22829        3.98311
H          3.91727       -2.61209        3.81208
H         -1.65405        4.81922        0.95053
H         -0.61131        4.49396        2.33701
H         -0.37626        5.95737        1.38484
