105
-153.06562570
Cl        -0.02449        1.90090        3.11908
Pd        -0.49077        1.28408        1.00899
P         -1.13873        0.51106       -1.12944
N         -0.78065       -1.00693       -1.94992
C          0.15875       -1.98692       -1.63007
C          0.31826       -2.48217       -0.31138
C          1.29033       -3.47209       -0.05908
C          1.43407       -4.01188        1.34427
C          2.27366       -5.29416        1.45542
C          3.53021       -5.20460        0.58479
C          3.15168       -5.00132       -0.88962
C          2.08095       -3.96103       -1.10286
C          1.87105       -3.49340       -2.39406
C          0.92645       -2.53622       -2.65614
H          0.78610       -2.17378       -3.65953
H          2.47271       -3.88782       -3.19545
H          4.03756       -4.72238       -1.47458
H          4.14660       -4.36198        0.92256
H          2.53963       -5.49778        2.50230
H          1.87976       -3.22917        1.96882
C         -0.66496       -2.14075        0.74448
C         -0.22439       -1.55690        1.96339
C         -1.14007       -1.43512        3.01288
C         -2.43933       -1.84678        2.86783
C         -2.89167       -2.40910        1.68027
C         -4.32680       -2.87498        1.61766
C         -4.80823       -3.26248        0.20994
C         -3.72946       -4.05032       -0.53773
C         -2.44556       -3.21857       -0.67064
C         -2.00325       -2.55954        0.61325
H         -1.62980       -3.84674       -1.04971
H         -4.09290       -4.37125       -1.52427
H         -5.05050       -2.35616       -0.35843
H         -4.97026       -2.09135        2.03695
H         -3.12994       -1.73761        3.68693
H         -0.81609       -0.98173        3.93320
N          1.06909       -1.03825        2.12033
P          1.58711        0.17746        0.95309
C          2.63120       -0.38430       -0.37913
C          2.45155        0.16030       -1.62579
C          3.29422       -0.20446       -2.65970
C          4.32385       -1.11096       -2.44266
C          4.50921       -1.62083       -1.16394
C          3.66384       -1.25543       -0.13165
H          3.80246       -1.64296        0.86514
H          5.31776       -2.30795       -0.98219
C          5.23479       -1.50309       -3.55283
H          3.15322        0.21079       -3.64282
H          1.64778        0.85923       -1.78241
C          2.49319        1.52158        1.72880
C          3.22403        1.30154        2.87127
C          3.92130        2.34637        3.45032
C          3.89908        3.61279        2.88126
C          3.15712        3.81258        1.72488
C          2.46125        2.76689        1.14616
H          1.88701        2.91812        0.24503
H          3.12388        4.79342        1.28224
C          4.62223        4.74540        3.52288
H          4.48588        2.18426        4.35259
H          3.25130        0.31525        3.30510
H          1.23766       -0.60183        3.01740
H         -1.06244       -0.90374       -2.91656
C         -0.58975        1.87926       -2.16344
C         -0.78103        3.17498       -1.74685
C         -0.33514        4.22720       -2.52314
C          0.29947        3.99022       -3.73444
C          0.48347        2.67674       -4.14372
C          0.03429        1.62742       -3.36326
H          0.18898        0.60986       -3.68031
H          0.98561        2.48058       -5.07572
C          0.80920        5.12104       -4.55843
H         -0.47724        5.24150       -2.19122
H         -1.28800        3.35763       -0.81449
C         -2.93384        0.57022       -1.09557
C         -3.59894        0.94146       -2.23997
C         -4.98189        0.98092       -2.25060
C         -5.70635        0.65790       -1.11131
C         -5.01636        0.27667        0.03065
C         -3.63478        0.22555        0.03366
H         -3.09463       -0.06223        0.92103
H         -5.56852        0.02378        0.91939
C         -7.19508        0.67856       -1.12352
H         -5.50704        1.26663       -3.14595
H         -3.03333        1.19999       -3.12139
Cl        -2.34587        2.56133        0.96619
H          2.80562       -5.95024       -1.31648
H          1.67082       -6.15251        1.13331
H          4.15759       -6.09849        0.71010
H          0.43288       -4.18312        1.75952
H         -3.50864       -4.97466        0.01068
H         -2.59240       -2.43792       -1.42592
H         -4.43923       -3.73287        2.29142
H         -5.74479       -3.83564        0.26044
H          6.09482       -0.83402       -3.60340
H          5.60585       -2.51988       -3.41607
H          4.72125       -1.46577       -4.51463
H          4.94751        5.47594        2.78087
H          3.97941        5.25742        4.24015
H          5.50877        4.39646        4.05423
H          0.80540        4.86824       -5.61964
H          0.19295        6.01180       -4.42863
H          1.83190        5.37515       -4.27648
H         -7.57362        1.39631       -1.85257
H         -7.59389       -0.30406       -1.37939
H         -7.59175        0.95922       -0.14682
