105
-153.06030442
Cl         0.16589        3.47819        1.77578
Pd        -0.17459        1.92426        0.18319
P         -0.70429        0.19379       -1.34267
N          0.17705       -1.23570       -1.90841
C          0.26306       -2.54525       -1.44512
C         -0.08664       -2.97000       -0.13348
C          0.22254       -4.28870        0.26831
C          0.06725       -4.68114        1.72001
C         -0.08359       -6.19440        1.92894
C          1.04405       -6.94464        1.21407
C          1.03777       -6.64315       -0.29407
C          0.74970       -5.20254       -0.64769
C          1.01420       -4.78287       -1.94404
C          0.79722       -3.48505       -2.32630
H          1.04788       -3.17204       -3.32516
H          1.41793       -5.49026       -2.64873
H          2.00012       -6.92755       -0.73855
H          2.00779       -6.64173        1.64256
H         -0.10793       -6.44508        2.99893
H          0.94805       -4.32153        2.26548
C         -0.68804       -2.05549        0.87465
C          0.12830       -1.04611        1.44963
C         -0.34591       -0.32414        2.54564
C         -1.60494       -0.55553        3.03541
C         -2.44311       -1.50581        2.45937
C         -3.81370       -1.69845        3.06555
C         -4.74131       -2.65213        2.29147
C         -3.96181       -3.82420        1.68706
C         -2.87115       -3.30515        0.74049
C         -1.98492       -2.26411        1.37796
H         -2.26554       -4.13635        0.36125
H         -4.63603       -4.52004        1.16787
H         -5.24085       -2.10095        1.48581
H         -4.28848       -0.71441        3.16923
H         -1.96598        0.01593        3.87365
H          0.27447        0.44064        2.97579
N          1.29083       -0.69330        0.76995
P          1.81319        0.94052        0.96542
C          2.89988        1.41380       -0.37273
C          3.39849        0.45538       -1.22232
C          4.15629        0.83718       -2.31447
C          4.41620        2.17919       -2.55941
C          3.89315        3.13134       -1.69403
C          3.13575        2.74842       -0.60185
H          2.69808        3.48176        0.05751
H          4.07133        4.17522       -1.88777
C          5.19849        2.59050       -3.75774
H          4.54274        0.09358       -2.99040
H          3.18333       -0.58459       -1.03802
C          2.64833        1.05596        2.54822
C          3.50195        0.03469        2.89148
C          4.17056        0.07494        4.10268
C          3.98140        1.13574        4.97855
C          3.11983        2.16014        4.60975
C          2.45400        2.11608        3.40012
H          1.77204        2.89925        3.11742
H          2.97303        2.99204        5.27724
C          4.71875        1.19351        6.27116
H          4.84414       -0.71973        4.37438
H          3.63422       -0.79234        2.21105
H          1.14898       -0.83431       -0.22971
H          0.40912       -1.07594       -2.88097
C         -0.58453        1.30970       -2.74902
C         -1.68909        1.68582       -3.47491
C         -1.54696        2.55570       -4.54017
C         -0.29651        3.04844       -4.88925
C          0.80551        2.66166       -4.13928
C          0.65981        1.79123       -3.07495
H          1.51272        1.49669       -2.48666
H          1.77768        3.05167       -4.38737
C         -0.14705        4.01125       -6.01520
H         -2.41065        2.86349       -5.10446
H         -2.66021        1.30955       -3.19903
C         -2.43385       -0.24594       -1.18346
C         -3.25591        0.35005       -0.25679
C         -4.59561        0.01274       -0.20923
C         -5.12208       -0.92053       -1.09268
C         -4.27939       -1.50178       -2.02988
C         -2.93728       -1.16675       -2.07117
H         -2.27497       -1.62101       -2.79127
H         -4.67939       -2.22203       -2.72291
C         -6.56524       -1.28549       -1.05361
H         -5.24219        0.47936        0.51406
H         -2.85303        1.08583        0.41926
Cl        -1.85690        3.18430       -0.61757
H          0.29081       -7.27415       -0.79056
H         -1.05062       -6.52127        1.52635
H          0.96836       -8.02583        1.39719
H         -0.78013       -4.15331        2.17027
H         -3.49720       -4.40667        2.49248
H         -3.33779       -2.86590       -0.14652
H         -3.68436       -2.06751        4.09009
H         -5.55103       -3.01821        2.93827
H          5.68556        3.55369       -3.59960
H          5.97578        1.86080       -3.98884
H          4.55077        2.68037       -4.63090
H          5.67242        1.70904        6.15019
H          4.14246        1.72519        7.02964
H          4.92321        0.19234        6.65313
H          0.83464        3.92153       -6.48246
H         -0.89806        3.83493       -6.78652
H         -0.25999        5.03762       -5.66350
H         -7.08524       -0.90376       -1.93328
H         -6.69215       -2.36888       -1.03040
H         -7.05629       -0.87465       -0.17041
