111
-148.55423010
P         -2.52845        2.09383        1.01742
P          0.10621        0.40007        0.50683
C         -1.43204        1.68900        2.40397
C         -0.26612        0.99302        2.16813
C         -3.26968        3.78021        1.19893
C         -2.63344        4.77045        0.24809
C         -1.76061        2.06360        3.69111
H         -2.68313        2.58972        3.87416
C         -0.91225        1.74715        4.73830
H         -1.16801        2.03943        5.74368
C          0.25954        1.05558        4.49748
H          0.91865        0.80755        5.31309
C          0.58167        0.67311        3.20764
H          1.48384        0.11788        3.00283
Pd        -1.33040        1.57302       -0.88504
Cl        -3.00270        2.46866       -2.07608
Cl         0.06382        0.98044       -2.54827
C         -4.76855        3.52332        0.95531
C         -4.06330        1.06248        0.96164
H         -2.77468        4.45934       -0.78781
H         -3.07183        5.76536        0.35542
H         -1.55775        4.85229        0.42155
H         -4.98705        3.69651       -0.10747
H         -5.37846        4.25566        1.50585
H         -4.17589        0.74204       -0.08285
C         -5.16854        2.06830        1.33377
C         -3.95792       -0.13387        1.88211
H         -3.09978        4.08401        2.23966
H         -5.35189        2.00822        2.41542
H         -6.11955        1.78571        0.85718
H         -3.13002       -0.78331        1.59000
H         -3.77873        0.18311        2.91118
H         -4.87424       -0.72864        1.87173
C         -1.19417       -3.93389       -0.00837
C         -1.16269       -3.36791        1.29241
C         -0.75768       -2.05028        1.42545
C         -0.46837       -1.28725        0.32498
C         -0.60430       -1.79836       -0.93782
C         -1.00292       -3.10661       -1.14418
O         -1.37422       -5.33338       -0.16999
C         -1.51867       -4.17301        2.55188
H         -0.64775       -1.60393        2.39774
H         -0.37725       -1.15168       -1.76711
C         -1.18233       -3.60815       -2.58493
C          4.48338        0.68713       -0.70596
C          3.87854       -0.58299       -0.52702
C          2.54448       -0.62515       -0.16057
C          1.84117        0.52314        0.09302
C          2.44732        1.74929        0.02155
C          3.78063        1.86399       -0.33880
O          5.77586        0.78161       -1.28722
C          4.62497       -1.90494       -0.76542
H          2.02645       -1.56536       -0.08653
H          1.85486        2.62207        0.23641
C          4.42890        3.25698       -0.36824
C         -2.60060       -5.22546        2.24868
C         -0.25275       -4.85492        3.09237
C         -2.08780       -3.24806        3.65185
C         -1.65789       -2.45858       -3.50350
C          0.16359       -4.13129       -3.10943
C         -2.25078       -4.71348       -2.66170
C         -0.15950       -6.07291       -0.19032
H         -2.90038       -5.75173        3.15457
H         -3.48514       -4.75406        1.82156
H         -2.24362       -5.96853        1.53988
H         -0.47123       -5.42459        3.99525
H          0.17092       -5.53716        2.35933
H          0.50930       -4.11485        3.33579
H         -2.92703       -2.66582        3.27321
H         -2.44363       -3.83151        4.50071
H         -1.33474       -2.55923        4.03157
H         -0.88606       -1.70247       -3.63839
H         -1.91263       -2.83459       -4.49399
H         -2.54259       -1.97389       -3.09148
H          0.91542       -3.34260       -3.09250
H          0.53266       -4.95241       -2.49934
H          0.07137       -4.48772       -4.13500
H         -2.42144       -5.02266       -3.69260
H         -1.95230       -5.59459       -2.09950
H         -3.19684       -4.36109       -2.25209
H         -0.17570       -6.82271        0.60054
H         -0.05917       -6.58794       -1.14550
H          0.69340       -5.40870       -0.04460
C          5.76600        0.88607       -2.70554
C          6.11781       -1.77042       -0.41528
C          4.05040       -3.02588        0.13180
C          4.45830       -2.32361       -2.23415
C          5.92922        3.18005       -0.03151
C          4.22808        3.87986       -1.75818
C          3.77976        4.18342        0.68510
H          6.24160       -1.43532        0.61397
H          6.63390       -2.72375       -0.52624
H          6.61407       -1.05087       -1.06156
H          4.65978       -3.92674        0.06299
H          4.03016       -2.71474        1.17594
H          3.03923       -3.30226       -0.16389
H          3.40419       -2.44707       -2.48139
H          4.86944       -1.57522       -2.90714
H          4.96444       -3.26833       -2.43103
H          6.47516        2.60799       -0.77738
H          6.37299        4.17445        0.00998
H          6.08137        2.70002        0.93460
H          3.16717        3.96233       -1.99326
H          4.66374        4.87750       -1.80612
H          4.69104        3.27350       -2.53281
H          3.78988        3.71728        1.67003
H          2.74910        4.42491        0.42973
H          4.32044        5.12698        0.75584
H          6.25595        1.81151       -3.00773
H          6.31877        0.05230       -3.13800
H          4.74148        0.87724       -3.07989
