171
-217.83540850
P         -1.72681        0.65100        0.23504
P          1.50432       -0.15115       -0.21187
C         -0.92883        1.88191       -0.82150
C          0.69710       -0.72882       -1.71926
C         -0.20024        1.57675       -1.96487
C          0.46856        2.61573       -2.63928
C          0.36286        3.91178       -2.16366
C         -0.37204        4.19742       -1.03324
C         -1.00797        3.17400       -0.35775
C          0.85411       -2.02122       -2.15779
C          0.22247       -2.44484       -3.31074
C         -0.57747       -1.57026       -4.01643
C         -0.75493       -0.26406       -3.59009
C         -0.08563        0.17164       -2.43086
Cl         1.98729        1.04880        2.78811
Cl        -1.12850        0.39160        3.45516
C         -1.63142        0.66624       -4.35456
C          1.31089        2.35608       -3.83921
H         -0.44107        5.21000       -0.67066
H         -1.56326        3.37736        0.54613
H          1.46188       -2.70677       -1.59308
H          0.34921       -3.45780       -3.65599
H          0.87638        4.70158       -2.68581
H         -1.07395       -1.90154       -4.91264
C         -2.74560       -3.49350       -1.30070
C         -3.45102       -2.39324       -1.77010
C         -3.08076       -1.14108       -1.29896
C         -2.05543       -1.00336       -0.39591
C         -1.37810       -2.10671        0.07129
C         -1.70502       -3.37783       -0.38743
H         -3.02199       -4.47492       -1.63680
H         -3.61758       -0.26460       -1.61868
H         -0.59016       -1.97152        0.78969
C         -5.78134        2.34666        1.34565
C         -5.02398        1.75135        2.34737
C         -3.77507        1.25023        2.00617
C         -3.31178        1.34524        0.71922
C         -4.07186        1.93997       -0.25783
C         -5.32689        2.45606        0.03657
H         -6.74927        2.73540        1.60048
H         -3.14021        0.79611        2.74391
H         -3.67845        2.00707       -1.25893
C          3.86856       -3.58232        1.63886
C          2.94094       -2.92785        2.43717
C          2.21078       -1.89466        1.86671
C          2.41217       -1.51780        0.55940
C          3.35764       -2.16252       -0.20130
C          4.09471       -3.21960        0.31802
H          4.43888       -4.38933        2.06072
H          1.48927       -1.36876        2.46152
H          3.51923       -1.83447       -1.21248
C          4.59211        2.93697       -1.42841
C          3.81713        3.18651       -0.30194
C          2.88002        2.23173        0.06508
C          2.71909        1.08676       -0.67168
C          3.48042        0.86434       -1.79316
C          4.43921        1.78758       -2.19429
H          5.34732        3.64489       -1.71264
H          2.28480        2.37325        0.94882
H          3.30738       -0.03031       -2.36547
Pd         0.14553        0.51615        1.61848
C         -4.85544       -3.97040       -3.19258
C         -4.65658       -2.51998       -2.71238
C         -4.44572       -1.62729       -3.94823
C         -5.92281       -2.06974       -1.96108
H         -5.69626       -4.03701       -3.88294
H         -3.96970       -4.33439       -3.71314
H         -5.06473       -4.63708       -2.35631
H         -5.28660       -1.70945       -4.63670
H         -4.34795       -0.57912       -3.66947
H         -3.54371       -1.92207       -4.48294
H         -6.09000       -2.69117       -1.08157
H         -5.83417       -1.03700       -1.62605
H         -6.80334       -2.14154       -2.59923
C         -0.48186       -5.46860       -1.07873
C         -1.00388       -4.64841        0.11663
C         -2.01053       -5.48911        0.92216
C          0.19292       -4.31778        1.02326
H          0.02925       -6.36895       -0.73809
H         -1.29176       -5.77744       -1.73797
H          0.22604       -4.88566       -1.66608
H         -1.54241       -6.39415        1.30895
H         -2.39613       -4.92008        1.76796
H         -2.85774       -5.78728        0.30548
H         -0.12425       -3.77698        1.91424
H          0.69400       -5.22939        1.34755
H          0.92535       -3.71327        0.49162
C         -5.85238        3.08644        4.30266
C         -5.57590        1.66561        3.77770
C         -4.57773        0.97987        4.73172
C         -6.88174        0.84992        3.77023
H         -4.94104        3.68401        4.29191
H         -6.59505        3.59775        3.69139
H         -6.22569        3.05832        5.32621
H         -4.36288       -0.03867        4.40928
H         -3.63889        1.53108        4.78025
H         -4.98172        0.92737        5.74254
H         -6.70651       -0.15246        3.37991
H         -7.28770        0.75414        4.77712
H         -7.64099        1.32291        3.14852
C         -5.35120        4.29544       -1.66598
C         -6.14777        3.11360       -1.08157
C         -7.49825        3.64305       -0.56259
C         -6.42083        2.07639       -2.18693
H         -4.40735        3.96339       -2.09704
H         -5.91698        4.79750       -2.45057
H         -5.12508        5.02754       -0.89099
H         -8.06517        4.11061       -1.36759
H         -8.10705        2.83494       -0.15750
H         -7.35285        4.39145        0.21623
H         -6.97290        1.22578       -1.78801
H         -7.00972        2.51185       -2.99397
H         -5.49253        1.70192       -2.61690
C          2.45459       -4.80627        4.04295
C          2.78986       -3.30873        3.91777
C          1.66810       -2.50115        4.60234
C          4.11494       -3.01304        4.64337
H          1.51358       -5.03530        3.54498
H          3.23073       -5.42755        3.59811
H          2.35700       -5.09582        5.08913
H          0.70806       -2.66893        4.11491
H          1.56311       -2.79374        5.64681
H          1.88295       -1.43292        4.58168
H          4.93328       -3.59654        4.22290
H          4.37473       -1.95850        4.55241
H          4.04223       -3.25327        5.70389
C          4.64746       -5.45168       -0.66772
C          5.11712       -3.99249       -0.52636
C          6.49225       -3.95008        0.16548
C          5.26544       -3.38575       -1.93588
H          5.34356       -6.02923       -1.27570
H          4.56984       -5.93695        0.30465
H          3.66690       -5.49556       -1.14185
H          6.45994       -4.42473        1.14530
H          7.24396       -4.46836       -0.42964
H          6.82150       -2.92022        0.30260
H          4.32222       -3.42035       -2.48094
H          5.59718       -2.34905       -1.88164
H          6.00218       -3.93779       -2.51929
C          5.04322        5.39894       -0.01264
C          3.97363        4.44831        0.55769
C          4.38874        4.03914        1.98325
C          2.62967        5.19859        0.60562
H          4.78626        5.71631       -1.02315
H          5.13169        6.29448        0.60231
H          6.02152        4.91938       -0.03802
H          3.63543        3.40400        2.44784
H          5.32706        3.48528        1.96659
H          4.52366        4.91499        2.61747
H          2.71047        6.10733        1.20164
H          2.31158        5.48003       -0.39783
H          1.84658        4.58135        1.04442
C          6.77371        1.21212       -2.87035
C          5.36184        1.52748       -3.39456
C          5.41482        2.76959       -4.30546
C          4.86976        0.33496       -4.23935
H          7.17217        2.04655       -2.29389
H          6.75670        0.33626       -2.22181
H          7.46087        1.01165       -3.69218
H          6.04225        2.58383       -5.17711
H          4.41969        3.03373       -4.66103
H          5.82629        3.63268       -3.78434
H          3.85167        0.49851       -4.59181
H          5.50477        0.19229       -5.11360
H          4.89198       -0.59169       -3.66688
H         -2.23943        1.27126       -3.67985
H          0.87149        2.80585       -4.73074
H         -2.30829        0.12407       -5.01587
H         -1.03968        1.34251       -4.97205
H          1.43266        1.28817       -4.02323
H          2.30548        2.78252       -3.70573
