58
-89.86888268
P          1.57747        0.04625        0.76357
C          3.00355        1.12002        0.57657
C          4.25871        0.55851        0.51490
C          5.36971        1.37034        0.37176
C          5.21389        2.74007        0.29164
C          3.95252        3.29877        0.35410
C          2.84354        2.48450        0.49820
H          1.85299        2.90855        0.53416
H          4.36280       -0.51322        0.57424
C          1.96245       -1.62164        0.21737
C          2.04225       -1.85739       -1.13588
C          2.32791       -3.12722       -1.60118
C          2.53967       -4.15383       -0.70256
C          2.47278       -3.91119        0.65546
C          2.18560       -2.63922        1.11708
H          2.13601       -2.43913        2.17484
H          1.88536       -1.03770       -1.81878
C          1.03160        0.10386        2.52286
C          0.05761        1.24979        2.77226
C         -1.40112        0.89517        2.52141
P         -1.76139        0.22489        0.84009
C         -1.50504       -1.55477        0.70889
C         -1.46177       -2.09855       -0.55520
C         -1.23312       -3.45226       -0.71990
C         -1.05316       -4.25622        0.38728
C         -1.10847       -3.71043        1.65418
C         -1.33784       -2.35637        1.81476
H         -1.39750       -1.93115        2.80232
H         -1.60214       -1.45530       -1.41003
C         -3.44391        0.65301        0.38427
C         -3.80753        1.97811        0.31302
C         -5.10079        2.31772       -0.04298
C         -6.02023        1.32635       -0.32395
C         -5.65054       -0.00220       -0.25140
C         -4.35665       -0.33831        0.10365
H         -4.05290       -1.37093        0.16058
H         -3.07464        2.74166        0.52160
Pd        -0.08424        0.80898       -0.65888
Cl         1.50368        1.24983       -2.18753
Cl        -1.73918        1.50133       -2.00987
H         -1.75236        0.15600        3.24277
H         -2.04000        1.77232        2.65006
H          0.16531        1.61353        3.80616
H          0.34309        2.10178        2.14020
H          0.58688       -0.85298        2.79560
H          1.94503        0.20912        3.11404
H          6.35348        0.93356        0.32015
H          3.83052        4.36728        0.28582
H          2.38479       -3.31315       -2.66103
H          2.64100       -4.71256        1.35602
H         -1.18875       -3.87522       -1.70996
H         -0.97082       -4.33913        2.51856
H         -5.38739        3.35463       -0.10551
H         -6.36682       -0.77607       -0.47355
H          6.07799        3.37406        0.17707
H          2.76026       -5.14584       -1.06159
H         -0.86793       -5.31062        0.26250
H         -7.02723        1.59010       -0.60345
