111
-148.55311962
P         -2.67888        1.92230       -0.26595
P          0.08023        0.52561        0.38318
C         -1.90512        2.17039        1.35640
C         -0.67587        1.60264        1.61352
C         -3.55552        3.44608       -0.84480
C         -2.75980        4.18567       -1.89807
C         -2.53507        2.91550        2.33284
H         -3.50522        3.34125        2.13630
C         -1.92455        3.09670        3.56203
H         -2.41575        3.67855        4.32481
C         -0.68900        2.53138        3.81379
H         -0.21569        2.67031        4.77182
C         -0.06413        1.77690        2.83705
H          0.89175        1.31195        3.02190
Pd        -1.05481        0.94912       -1.58718
Cl        -2.37529        1.30382       -3.36312
Cl         0.63494       -0.01722       -2.71124
C         -4.91073        2.89363       -1.32330
C         -4.08237        0.71537       -0.25794
H         -2.59582        3.55750       -2.77423
H         -3.28022        5.08609       -2.23252
H         -1.77854        4.48111       -1.51907
H         -4.83903        2.66560       -2.39579
H         -5.69246        3.66357       -1.23562
H         -3.90033        0.03348       -1.09950
C         -5.30664        1.60518       -0.54585
C         -4.14774       -0.04812        1.04711
H         -3.69642        4.07823        0.04101
H         -5.77361        1.88338        0.40894
H         -6.07291        1.03614       -1.09388
H         -4.99235       -0.74087        1.06347
H         -3.23547       -0.62466        1.21326
H         -4.26135        0.63528        1.89065
C         -1.24615       -3.76981        1.11081
C         -0.65422       -3.40872       -0.12636
C         -0.27199       -2.09161       -0.30683
C         -0.39075       -1.17309        0.70146
C         -0.85899       -1.54202        1.93487
C         -1.26105       -2.84329        2.18514
O         -1.86035       -5.04169        1.25974
C         -0.46566       -4.40250       -1.28242
H          0.10736       -1.75015       -1.25396
H         -0.92344       -0.78972        2.70093
C         -1.73892       -3.21838        3.59665
C          4.59271        1.00185        0.01246
C          3.73344        2.05088       -0.41084
C          2.36753        1.88928       -0.24147
C          1.85092        0.71690        0.24416
C          2.66780       -0.34430        0.53527
C          4.04190       -0.25109        0.39129
O          5.98882        1.22685        0.12534
C          4.22849        3.34359       -1.08150
H          1.68543        2.68317       -0.49646
H          2.21605       -1.26091        0.87431
C          4.87789       -1.52182        0.62000
C         -1.71161       -4.37548       -2.18071
C          0.76489       -4.01838       -2.13585
C         -0.21852       -5.82752       -0.75567
C         -1.42835       -4.69238        3.91439
C         -1.01212       -2.36608        4.66194
C         -3.24895       -2.95862        3.70927
C         -3.23763       -5.06264        0.90557
H         -1.60363       -5.06293       -3.01919
H         -2.60349       -4.65819       -1.62664
H         -1.87435       -3.37557       -2.58256
H          1.65023       -3.90785       -1.51089
H          0.97462       -4.78644       -2.87983
H          0.60786       -3.08590       -2.67573
H         -0.02287       -6.51952       -1.57440
H          0.63953       -5.84466       -0.08447
H         -1.07852       -6.20264       -0.20666
H         -1.70718       -4.93985        4.93835
H         -1.97209       -5.36384        3.25467
H         -0.36463       -4.89484        3.79399
H         -1.30581       -1.31866        4.61040
H         -1.25149       -2.71563        5.66600
H          0.06852       -2.42656        4.53520
H         -3.47359       -1.90717        3.53212
H         -3.80548       -3.54319        2.98064
H         -3.61670       -3.21869        4.70151
H         -3.56307       -4.07265        0.58323
H         -3.39716       -5.77798        0.09895
H         -3.83115       -5.37899        1.76319
C          6.36492        1.72438        1.39837
C          4.10215        4.51427       -0.09318
C          5.68572        3.23152       -1.56252
C          3.36425        3.63664       -2.32847
C          4.20343       -2.71560       -0.09306
C          6.29794       -1.39652        0.04145
C          4.95925       -1.81764        2.12632
H          4.42163        5.44880       -0.55365
H          3.07047        4.63707        0.23505
H          4.71467        4.34987        0.79131
H          6.37015        3.12320       -0.72443
H          5.81057        2.36425       -2.20994
H          5.98517        4.11877       -2.11988
H          2.33102        3.85469       -2.06394
H          3.74777        4.49874       -2.87355
H          3.36500        2.78271       -3.00533
H          4.82388       -3.60898       -0.02727
H          3.23905       -2.95932        0.34949
H          4.04489       -2.49294       -1.14789
H          6.26029       -1.12029       -1.01173
H          6.87098       -0.63520        0.56555
H          6.84215       -2.33667        0.12794
H          3.96417       -1.94293        2.55230
H          5.44985       -1.00650        2.66083
H          5.52222       -2.73166        2.31361
H          7.44444        1.87485        1.42070
H          5.86514        2.67217        1.59173
H          6.08430        1.01460        2.17476
