171
-217.84042200
P         -1.68446        0.67320        0.16930
P          1.50374       -0.18154       -0.19187
C         -0.85521        1.86816       -0.90001
C          0.73421       -0.77247       -1.70973
C         -0.13701        1.52936       -2.04072
C          0.54146        2.54654       -2.73860
C          0.45959        3.85255       -2.28573
C         -0.26139        4.16974       -1.15491
C         -0.91008        3.16889       -0.45821
C          0.91185       -2.07354       -2.11040
C          0.32156       -2.52872       -3.27267
C         -0.45179       -1.67150       -4.02776
C         -0.64995       -0.35621       -3.63914
C         -0.02317        0.11126       -2.46789
Cl         1.91897        0.94298        2.87063
Cl        -1.17879        0.23839        3.44032
C         -1.50021        0.54361       -4.46627
C          1.36560        2.25291       -3.94297
H         -0.31271        5.18966       -0.81049
H         -1.45894        3.39760        0.44357
H          1.51990       -2.73357       -1.51599
H          0.46149       -3.55059       -3.58542
H          0.98148        4.62486       -2.82542
H         -0.90606       -2.02152       -4.93892
C         -2.86202       -3.40576       -1.41780
C         -1.91194       -3.34757       -0.40444
C         -1.53245       -2.09374        0.05805
C         -2.07940       -0.95469       -0.48504
C         -3.02771       -1.03378       -1.47503
C         -3.44513       -2.26714       -1.95873
H         -3.17753       -4.36276       -1.78828
H         -0.81981       -2.00781        0.85924
H         -3.45323       -0.12216       -1.85591
C         -5.68606        2.47413        1.30920
C         -4.93008        1.86763        2.30568
C         -3.69908        1.33691        1.95031
C         -3.24582        1.41604        0.65932
C         -4.00234        2.02354       -0.31284
C         -5.24426        2.56592       -0.00525
H         -6.64642        2.88685        1.55481
H         -3.07740        0.86393        2.68846
H         -3.61054        2.07431       -1.31454
C          3.85007       -3.63416        1.64350
C          2.82889       -3.07125        2.39788
C          2.10400       -2.03103        1.83550
C          2.40141       -1.55430        0.58056
C          3.43235       -2.11133       -0.13706
C          4.16972       -3.17215        0.37390
H          4.41922       -4.44877        2.05018
H          1.31195       -1.58231        2.40567
H          3.65810       -1.71316       -1.10992
C          4.58999        2.95018       -1.29684
C          3.79930        3.16280       -0.17381
C          2.86384        2.19214        0.15361
C          2.71587        1.07057       -0.62089
C          3.49142        0.88557       -1.73972
C          4.45410        1.82264       -2.09769
H          5.34603        3.66918       -1.54931
H          2.26100        2.30051        1.03719
H          3.32885        0.00865       -2.34179
Pd         0.11976        0.43307        1.62591
C         -1.80308       -4.62192        1.74096
C         -1.35249       -4.61002        0.26913
C          0.18444       -4.60803        0.19382
C         -1.86273       -5.89618       -0.40915
H         -2.89069       -4.63090        1.80947
H         -1.42495       -5.50241        2.25992
H         -1.44614       -3.73859        2.26840
H          0.60274       -5.47742        0.70061
H          0.51771       -4.63512       -0.84271
H          0.60195       -3.71880        0.66098
H         -1.43959       -6.77893        0.07019
H         -2.94757       -5.97410       -0.34052
H         -1.57841       -5.92297       -1.46102
C         -5.13405       -1.02364       -3.40172
C         -4.55121       -2.39797       -3.01613
C         -5.69473       -3.26182       -2.45082
C         -3.97655       -3.06233       -4.27897
H         -5.92635       -1.13292       -4.14211
H         -5.56072       -0.52263       -2.53291
H         -4.37006       -0.37729       -3.83153
H         -6.09180       -2.82235       -1.53591
H         -6.51166       -3.34460       -3.16749
H         -5.35451       -4.27002       -2.21799
H         -3.17796       -2.45564       -4.70267
H         -3.56734       -4.04717       -4.05647
H         -4.74640       -3.18341       -5.04086
C         -5.49253        0.27524        4.15758
C         -5.40006        1.76113        3.76330
C         -6.78286        2.40925        3.96647
C         -4.38554        2.47551        4.67594
H         -6.18703       -0.25363        3.50517
H         -4.52273       -0.21516        4.08121
H         -5.84161        0.16475        5.18403
H         -7.09939        2.32665        5.00617
H         -6.76062        3.46872        3.71189
H         -7.53915        1.92090        3.35221
H         -4.70112        2.43375        5.71818
H         -3.40001        2.01628        4.60829
H         -4.28592        3.52355        4.39439
C         -7.44735        2.45279       -1.19466
C         -6.12667        3.23405       -1.06914
C         -5.43796        3.25292       -2.44856
C         -6.41795        4.68719       -0.65152
H         -7.99766        2.45232       -0.25448
H         -8.08990        2.89233       -1.95739
H         -7.25614        1.41591       -1.47065
H         -4.49726        3.80205       -2.40984
H         -5.23389        2.24177       -2.80014
H         -6.07228        3.73708       -3.19094
H         -7.02428        5.19450       -1.40175
H         -6.95657        4.72817        0.29442
H         -5.48995        5.24629       -0.53293
C          2.77314       -2.33186        4.78754
C          2.51257       -3.51330        3.83408
C          3.38871       -4.70263        4.27093
C          1.03578       -3.93546        3.93174
H          3.81045       -2.00494        4.72048
H          2.13982       -1.47979        4.54269
H          2.57181       -2.61166        5.82130
H          4.44601       -4.43904        4.25355
H          3.14352       -5.01046        5.28735
H          3.23471       -5.56240        3.61901
H          0.37082       -3.10681        3.69238
H          0.82413       -4.75201        3.24244
H          0.79266       -4.27362        4.93880
C          5.51755       -3.14774       -1.78528
C          5.30183       -3.83583       -0.42259
C          4.94362       -5.31217       -0.67183
C          6.61318       -3.74437        0.37929
H          6.32727       -3.62566       -2.33649
H          4.62068       -3.20613       -2.40186
H          5.78176       -2.09847       -1.65552
H          4.82756       -5.85458        0.26582
H          4.00641       -5.39246       -1.22254
H          5.72047       -5.80998       -1.25190
H          6.86405       -2.70444        0.58773
H          6.53406       -4.26701        1.33171
H          7.44078       -4.18676       -0.17498
C          2.58771        5.14680        0.75996
C          3.93475        4.40161        0.72193
C          5.01368        5.36909        0.19952
C          4.32080        3.95685        2.14505
H          2.29204        5.45516       -0.24247
H          1.79679        4.51517        1.16287
H          2.65180        6.03875        1.38278
H          4.77629        5.71416       -0.80669
H          5.08825        6.24737        0.84065
H          5.99311        4.89153        0.18027
H          3.55886        3.31006        2.57837
H          5.25989        3.40416        2.13384
H          4.44177        4.81661        2.80364
C          6.80875        1.28091       -2.72989
C          5.40707        1.59645       -3.28135
C          5.47348        2.85912       -4.16267
C          4.94690        0.41837       -4.16330
H          7.18719        2.10654       -2.12783
H          6.78352        0.39241       -2.09922
H          7.51670        1.10189       -3.53893
H          4.48604        3.12606       -4.53653
H          5.86655        3.71261       -3.61233
H          6.12313        2.69695       -5.02268
H          3.93825        0.58216       -4.54132
H          5.60717        0.29746       -5.02198
H          4.95945       -0.51946       -3.60900
H         -0.90916        1.03977       -5.23692
H          2.35373        2.70340       -3.84790
H         -1.97185        1.31321       -3.85306
H         -2.29398       -0.01385       -4.96517
H          0.89924        2.65575       -4.84320
H          1.50504        1.18071       -4.08420
