115
-277.93562188
P         -1.62872        0.78429        0.28640
P          1.94759        0.09429       -0.04437
C         -2.58662        2.30106        0.18847
C         -3.85966        2.30696        0.71910
H         -4.32703        1.37605        1.00082
C         -4.46425        3.51343        1.01702
H         -5.40002        3.53661        1.55169
C         -3.79977        4.70688        0.77188
C         -2.58297        4.68333        0.11043
H         -2.07255        5.61866       -0.05968
C         -1.96793        3.48019       -0.16740
H         -0.97663        3.46562       -0.59059
C         -2.63961       -0.55331       -0.37875
C         -2.94659       -1.64698        0.39897
H         -2.65395       -1.67278        1.43526
C         -3.59013       -2.72954       -0.16219
H         -3.77303       -3.62087        0.41704
C         -3.94739       -2.71335       -1.49850
C         -3.66762       -1.59738       -2.26193
H         -3.92054       -1.61223       -3.31080
C         -3.01224       -0.52223       -1.70179
H         -2.74747        0.32613       -2.31094
C         -1.23217        0.48906        2.05237
C         -0.53280       -0.68912        2.21657
H         -0.25596       -1.25588        1.34829
C         -0.01353       -1.07396        3.45005
C         -0.40954       -0.35225        4.56846
H         -0.05727       -0.64923        5.54213
C         -1.11065        0.82726        4.42065
H         -1.29998        1.43818        5.28711
C         -1.42760        1.33063        3.15809
C          1.86144        0.84825        1.62049
C          1.20139        2.06513        1.62040
H          0.77937        2.43658        0.70207
C          0.92089        2.74345        2.80710
C          1.53739        2.29092        3.96723
H          1.36906        2.81568        4.89281
C          2.21952        1.09107        3.97374
H          2.58346        0.69637        4.90710
C          2.29261        0.29457        2.83142
C         -1.62590        2.82689        3.05744
H         -2.17639        3.17370        3.94031
H         -2.30543        3.05389        2.24012
C         -0.28784        3.63911        2.89910
H         -0.33084        4.28638        2.01726
H         -0.16039        4.33131        3.73898
C          1.21065       -1.94965        3.49451
H          1.03467       -2.83784        2.87933
H          1.33275       -2.33890        4.51123
C          2.50779       -1.18680        3.03085
H          3.31596       -1.33573        3.75541
H          2.89090       -1.60919        2.10458
C          1.73927       -1.69963       -0.17362
C          2.82089       -2.50544        0.10858
C          0.50582       -2.26395       -0.42483
C          2.63011       -3.85607        0.32031
C          0.31648       -3.61671       -0.23289
C          1.36276       -4.40625        0.22136
C          3.46579        0.60137       -0.86362
C          4.04454       -0.17090       -1.84396
C          4.04397        1.78992       -0.48422
C          5.21653        0.24528       -2.44312
H          3.57384       -1.09184       -2.14834
C          5.21518        2.20464       -1.08249
H          3.58394        2.38649        0.28703
C          5.80752        1.43540       -2.06598
H          5.69502       -0.34916       -3.20548
H          5.69210        3.12457       -0.78484
Pd         0.12868        0.90159       -1.28884
Cl        -1.44810        1.93110       -2.52574
Cl         1.58671        0.92852       -2.99698
H         -0.65671       -4.06350       -0.37164
H         -0.33156       -1.64344       -0.69410
H          3.43509       -4.48019        0.67676
H          3.79839       -2.06786        0.24008
C         -5.68431        6.06270        1.79592
C         -4.15565        5.96695        1.52140
C         -3.30412        5.93918        2.83174
F         -6.31838        5.90527        0.62460
F         -6.05321        5.09209        2.64306
F         -5.96258        7.26888        2.31427
F         -3.79345        7.04093        0.81563
F         -3.54850        4.79828        3.48995
F         -2.01272        5.96289        2.47323
F         -3.60093        7.00345        3.58925
C         -3.18446       -4.71128       -2.71561
C         -4.44185       -3.95646       -2.19081
C         -5.31102       -4.82554       -1.23552
F         -3.52703       -5.94084       -3.12798
F         -2.68744       -3.99693       -3.73622
F         -2.27545       -4.76815       -1.73084
F         -5.19691       -3.62714       -3.24231
F         -6.23174       -4.02317       -0.68076
F         -5.91022       -5.79496       -1.94475
F         -4.53550       -5.35390       -0.27819
C          7.13447        3.35136       -3.02142
C          7.13192        1.83484       -2.66550
C          8.25842        1.46047       -1.65982
F          6.04562        3.59485       -3.76606
F          7.08547        4.07791       -1.89625
F          8.24457        3.63871       -3.71840
F          7.34876        1.15339       -3.79381
F          8.22275        0.12952       -1.49578
F          9.44628        1.83593       -2.15689
F          8.02174        2.06634       -0.48698
C          0.81440       -5.30136        2.43300
C          1.09865       -5.70108        0.95124
C         -0.07801       -6.49792        0.32153
F          0.53165       -6.39443        3.15416
F          1.91381       -4.69730        2.90351
F         -0.20275       -4.42912        2.46187
F          2.18599       -6.47557        0.92877
F         -1.22586       -5.83454        0.52431
F          0.16309       -6.61214       -0.99362
F         -0.13443       -7.71390        0.88795
