105
-153.06992097
Cl         0.47825        2.07740        3.01971
Pd        -0.29497        1.44495        0.99313
P         -1.24627        0.75395       -1.00591
N         -0.23179       -0.35843       -1.90765
C          0.31442       -1.61151       -1.66554
C          0.24957       -2.28459       -0.41993
C          0.94676       -3.49918       -0.25134
C          0.87222       -4.19788        1.08507
C          1.94278       -5.28112        1.28792
C          2.05139       -6.17966        0.05257
C          2.41730       -5.35656       -1.19224
C          1.65749       -4.05904       -1.31516
C          1.67369       -3.40179       -2.53781
C          1.02186       -2.20853       -2.70886
H          1.07232       -1.70031       -3.65617
H          2.22696       -3.83378       -3.35455
H          3.49027       -5.13127       -1.18342
H          2.78216       -6.98380        0.21905
H          2.91260       -4.80303        1.47446
H          0.94946       -3.44688        1.88069
C         -0.68830       -1.86658        0.64985
C         -0.20114       -1.26391        1.84336
C         -1.09313       -1.07939        2.90480
C         -2.40742       -1.45463        2.79688
C         -2.89382       -2.06758        1.64812
C         -4.33650       -2.51603        1.64056
C         -4.80720       -3.17730        0.33297
C         -3.68760       -3.98971       -0.32361
C         -2.47669       -3.09389       -0.61924
C         -2.02599       -2.29562        0.57879
H         -1.64136       -3.70241       -0.98693
H         -4.04494       -4.48208       -1.23918
H         -5.14022       -2.40367       -0.36769
H         -4.96961       -1.65095        1.87526
H         -3.08092       -1.28705        3.62027
H         -0.73905       -0.60122        3.80107
N          1.12049       -0.81555        1.97477
P          1.75639        0.23525        0.70290
C          2.93456       -0.66530       -0.30457
C          3.26650       -0.23951       -1.56821
C          4.21555       -0.93568       -2.29454
C          4.85037       -2.04505       -1.75068
C          4.51355       -2.44579       -0.46490
C          3.56061       -1.75109        0.25771
H          3.28947       -2.05452        1.25644
H          4.99579       -3.30727       -0.03573
C          5.83818       -2.82043       -2.55041
H          4.46630       -0.62294       -3.29373
H          2.78046        0.62813       -1.98278
C          2.72595        1.59050        1.37210
C          3.52904        1.38845        2.46804
C          4.28278        2.43592        2.96609
C          4.23416        3.68855        2.36855
C          3.43218        3.86441        1.24876
C          2.67999        2.81638        0.75069
H          2.05377        2.95043       -0.11755
H          3.39884        4.82806        0.76983
C          5.05920        4.81175        2.89298
H          4.91402        2.28602        3.82523
H          3.56637        0.41394        2.92782
H          1.33200       -0.34299        2.84450
H         -0.25578       -0.04841       -2.87136
C         -1.05779        2.34911       -1.80758
C         -2.10273        3.24042       -1.86175
C         -1.91209        4.48590       -2.43155
C         -0.67413        4.84585       -2.94803
C          0.37292        3.93730       -2.86856
C          0.17905        2.69127       -2.30046
H          0.98871        1.98336       -2.23123
H          1.34140        4.21305       -3.24960
C         -0.46040        6.19925       -3.53119
H         -2.72443        5.19139       -2.47030
H         -3.05811        2.96409       -1.44601
C         -2.96163        0.28301       -1.24769
C         -3.31498       -0.27639       -2.45309
C         -4.63842       -0.59116       -2.70694
C         -5.62032       -0.32884       -1.76170
C         -5.24557        0.24125       -0.55254
C         -3.92243        0.54970       -0.30223
H         -3.63591        1.02660        0.61886
H         -5.99734        0.44725        0.19008
C         -7.04078       -0.68644       -2.03044
H         -4.91714       -1.04093       -3.64454
H         -2.55286       -0.46623       -3.19184
Cl        -2.25891        2.39052        1.55480
H          2.25162       -5.94990       -2.10061
H          1.73078       -5.87747        2.18659
H          1.09122       -6.68430       -0.11353
H         -0.12613       -4.63800        1.19327
H         -3.38345       -4.80074        0.34994
H         -2.71375       -2.40493       -1.43543
H         -4.48010       -3.21463        2.47366
H         -5.69035       -3.80694        0.51074
H          6.57607       -3.30111       -1.90657
H          5.33997       -3.59858       -3.13043
H          6.37612       -2.17436       -3.24556
H          4.57316        5.77231        2.71652
H          5.21826        4.71489        3.96784
H          6.03622        4.83424        2.40835
H         -0.13938        6.90481       -2.76369
H          0.30424        6.17672       -4.30895
H         -1.37725        6.58410       -3.97990
H         -7.20918       -1.75297       -1.87468
H         -7.71798       -0.14007       -1.37251
H         -7.31579       -0.44919       -3.05912
