111
-148.55626772
P         -2.52962        2.10694        1.10911
P          0.08462        0.41378        0.54195
C         -1.44637        1.63701        2.48457
C         -0.28912        0.93459        2.22664
C         -3.23601        3.80264        1.33264
C         -2.59995        4.79020        0.37879
C         -1.77842        1.96310        3.78390
H         -2.69389        2.49614        3.98207
C         -0.94238        1.58974        4.82225
H         -1.20067        1.84354        5.83738
C          0.22020        0.89027        4.56001
H          0.86943        0.59764        5.36874
C          0.54618        0.55804        3.25728
H          1.44164       -0.00117        3.03531
Pd        -1.33704        1.64396       -0.80765
Cl        -3.02470        2.48715       -2.01920
Cl        -0.01842        1.13528       -2.55740
C         -4.74463        3.57977        1.11488
C         -4.08471        1.10908        1.02715
H         -2.76672        4.49032       -0.65695
H         -3.01799        5.79187        0.50339
H         -1.51976        4.85108        0.53218
H         -4.98341        3.79217        0.06367
H         -5.32869        4.30420        1.70261
H         -4.21493        0.83574       -0.02863
C         -5.16440        2.12067        1.45375
C         -3.99389       -0.12726        1.89468
H         -3.03733        4.08814        2.37353
H         -5.32823        2.02795        2.53626
H         -6.12917        1.87062        0.98665
H         -3.18080       -0.77843        1.56683
H         -3.79966        0.14171        2.93462
H         -4.92136       -0.70395        1.86778
C         -1.13831       -3.91106       -0.17216
C         -1.17833       -3.38902        1.14680
C         -0.80028       -2.07121        1.34266
C         -0.47245       -1.26766        0.28258
C         -0.54181       -1.73627       -1.00192
C         -0.90815       -3.04305       -1.26990
O         -1.28388       -5.30709       -0.38889
C         -1.57840       -4.24084        2.36154
H         -0.73859       -1.65787        2.33365
H         -0.29235       -1.05573       -1.79737
C         -1.00621       -3.50072       -2.73290
C          4.46156        0.62886       -0.67555
C          3.94047       -0.55929       -0.10212
C          2.60347       -0.57954        0.25745
C          1.82084        0.53904        0.13696
C          2.34772        1.72224       -0.30834
C          3.67594        1.81029       -0.69244
O          5.75048        0.62377       -1.27203
C          4.77863       -1.83289        0.08854
H          2.14407       -1.48502        0.61556
H          1.69398        2.57422       -0.38183
C          4.22289        3.16163       -1.17751
C         -2.61593       -5.30967        1.97243
C         -0.32463       -4.90746        2.94760
C         -2.22782       -3.36366        3.45608
C         -1.45173       -2.32947       -3.63892
C          0.37269       -3.98859       -3.20322
C         -2.05179       -4.61808       -2.89858
C         -0.05635       -6.02516       -0.36613
H         -2.20415       -6.02296        1.26286
H         -2.94886       -5.86929        2.84619
H         -3.48883       -4.84731        1.51274
H         -0.57468       -5.51061        3.82004
H          0.15497       -5.55529        2.21772
H          0.40364       -4.15653        3.25334
H         -2.60928       -3.98076        4.26927
H         -1.51499       -2.66578        3.89257
H         -3.06326       -2.79394        3.05103
H         -0.68591       -1.55871       -3.70995
H         -1.64904       -2.67743       -4.65250
H         -2.36396       -1.87051       -3.25876
H          0.72041       -4.82622       -2.60311
H          0.33933       -4.31015       -4.24381
H          1.11183       -3.19207       -3.11934
H         -3.02287       -4.29246       -2.52717
H         -2.16494       -4.89674       -3.94596
H         -1.76807       -5.51228       -2.34947
H          0.77632       -5.34981       -0.16493
H         -0.09647       -6.79282        0.40650
H          0.09890       -6.51655       -1.32643
C          5.74789        0.26242       -2.64771
C          6.25761       -1.49330        0.34715
C          4.28029       -2.63302        1.31419
C          4.64609       -2.71835       -1.16016
C          3.98718        3.28716       -2.69059
C          3.50023        4.32944       -0.46830
C          5.72223        3.30325       -0.85865
H          6.70660       -0.99511       -0.50824
H          6.35427       -0.83135        1.20707
H          6.83780       -2.39416        0.54541
H          4.94938       -3.46558        1.53051
H          4.23799       -1.99898        2.19945
H          3.29033       -3.05497        1.14680
H          5.00162       -2.20271       -2.04905
H          5.22184       -3.63700       -1.05047
H          3.60456       -2.99089       -1.33008
H          2.92491        3.21093       -2.92184
H          4.34706        4.24535       -3.06433
H          4.50052        2.49921       -3.23627
H          3.53610        4.20736        0.61392
H          3.97083        5.28129       -0.71357
H          2.45695        4.40224       -0.77176
H          6.31326        2.56179       -1.39023
H          5.90173        3.17130        0.20779
H          6.09271        4.28692       -1.14613
H          6.35603       -0.63008       -2.79386
H          4.72970        0.06843       -2.98757
H          6.18074        1.06946       -3.23863
