111
-148.55432178
P         -2.72368        1.97051       -0.48639
P          0.02927        0.57943        0.25297
C         -1.94539        2.30841        1.11455
C         -0.72785        1.73562        1.41235
C         -3.51270        3.48354       -1.20219
C         -2.70922        4.02441       -2.36474
C         -2.56772        3.12301        2.03857
H         -3.52772        3.55471        1.80697
C         -1.96241        3.36646        3.25958
H         -2.44762        4.00199        3.98229
C         -0.73973        2.79400        3.55423
H         -0.27025        2.98102        4.50596
C         -0.12208        1.97226        2.62853
H          0.82445        1.50372        2.84827
Pd        -1.13297        0.86974       -1.73697
Cl        -2.51985        0.87727       -3.49414
Cl         0.62057       -0.15645       -2.70832
C         -4.92600        2.99396       -1.57016
C         -4.19304        0.85194       -0.37652
H         -3.17485        4.91575       -2.79170
H         -1.69339        4.28525       -2.05810
H         -2.63024        3.28148       -3.15985
H         -4.92706        2.68204       -2.62369
H         -5.64811        3.82214       -1.50648
H         -4.07696        0.11901       -1.18627
C         -5.36925        1.79892       -0.67840
C         -4.26504        0.16014        0.96720
H         -3.56252        4.22118       -0.39106
H         -5.77020        2.17895        0.27137
H         -6.19648        1.24443       -1.14714
H         -3.38371       -0.46159        1.13708
H         -4.31286        0.88978        1.77761
H         -5.14860       -0.47809        1.04143
C         -1.15243       -3.69090        1.31166
C         -0.44652       -3.42133        0.11148
C         -0.13915       -2.10492       -0.18319
C         -0.42872       -1.09497        0.69428
C         -1.01146       -1.36243        1.90499
C         -1.35878       -2.65530        2.25905
O         -1.68220       -4.98685        1.55076
C         -0.03054       -4.51933       -0.87924
H          0.31991       -1.83915       -1.11928
H         -1.19731       -0.54025        2.57293
C         -1.97030       -2.91651        3.64464
C          4.56768        0.92427        0.11788
C          3.78050        1.68221       -0.78680
C          2.40122        1.59440       -0.69113
C          1.80992        0.73101        0.19264
C          2.56676       -0.08268        0.99496
C          3.95033       -0.03622        0.95882
O          5.96811        1.14582        0.20276
C          4.39853        2.58403       -1.86716
H          1.76493        2.19065       -1.32221
H          2.05523       -0.76546        1.65151
C          4.75537       -1.01076        1.83263
C          1.27457       -4.12441       -1.60862
C          0.24778       -5.84791       -0.15335
C         -1.13988       -4.70566       -1.92529
C         -1.47589       -1.86882        4.66788
C         -3.50118       -2.82497        3.55492
C         -1.55285       -4.29892        4.17828
C         -2.99044       -5.18280        1.02883
H          1.64486       -4.95112       -2.21431
H          1.12322       -3.28022       -2.27952
H          2.05265       -3.85825       -0.89371
H          1.00534       -5.71183        0.61780
H         -0.64829       -6.23487        0.32502
H          0.60413       -6.60737       -0.84883
H         -0.86834       -5.47259       -2.65014
H         -2.07686       -5.00014       -1.45860
H         -1.31745       -3.77681       -2.46699
H         -1.86721       -0.87620        4.44916
H         -1.80422       -2.12670        5.67451
H         -0.38742       -1.81613        4.67415
H         -3.89921       -3.54877        2.84809
H         -3.96074       -3.01400        4.52473
H         -3.80987       -1.83380        3.22455
H         -1.93833       -5.09871        3.55062
H         -0.46734       -4.38825        4.20479
H         -1.93156       -4.46043        5.18722
H         -3.35740       -4.26541        0.56670
H         -2.97424       -5.98160        0.28770
H         -3.66293       -5.47943        1.83364
C          6.33982        2.15989        1.12752
C          5.74604        2.02085       -2.35453
C          3.47247        2.66232       -3.10293
C          4.58857        4.00004       -1.30370
C          6.08080       -1.39714        1.15157
C          5.03070       -0.36143        3.19712
C          3.96644       -2.32115        2.05955
H          6.48361        2.00909       -1.55598
H          5.62660        0.99926       -2.71386
H          6.15108        2.62183       -3.16829
H          3.96440        3.18388       -3.92355
H          3.20672        1.66451       -3.45125
H          2.55356        3.20442       -2.88523
H          5.25201        3.99571       -0.44216
H          5.01564        4.66467       -2.05427
H          3.63442        4.41915       -0.98511
H          5.89585       -1.81753        0.16360
H          6.73051       -0.53382        1.03037
H          6.62267       -2.13738        1.73969
H          5.59149       -1.03529        3.84433
H          5.60528        0.55527        3.08816
H          4.09687       -0.10963        3.69934
H          4.58455       -3.06209        2.56602
H          3.64253       -2.74812        1.11075
H          3.08700       -2.16067        2.68157
H          6.87381        2.95353        0.60529
H          5.45587        2.57441        1.61380
H          7.00623        1.74005        1.88083
