105
-153.06668787
Cl         3.27656        1.53050       -0.63728
Pd         1.05723        1.46178       -0.99065
P         -1.24285        1.32010       -1.48100
N         -1.44498       -0.40466       -1.20372
C         -0.37979       -1.28137       -1.38186
C         -0.16299       -2.30955       -0.43519
C          0.94864       -3.15954       -0.57164
C          1.20085       -4.24115        0.44758
C          1.97862       -5.42668       -0.13789
C          3.28384       -4.93358       -0.77144
C          3.02208       -3.88779       -1.87240
C          1.82641       -2.99046       -1.64545
C          1.58534       -1.97939       -2.57013
C          0.50605       -1.14257       -2.44749
H          0.33320       -0.35995       -3.16515
H          2.26592       -1.85680       -3.39557
H          3.90836       -3.25489       -2.00739
H          3.91471       -4.49243        0.00959
H          2.17286       -6.19021        0.62864
H          1.77077       -3.80895        1.27431
C         -1.16988       -2.49541        0.63641
C         -1.40311       -1.47173        1.59363
C         -2.43429       -1.64509        2.51538
C         -3.20119       -2.78098        2.52104
C         -3.02104       -3.77470        1.56717
C         -3.91474       -4.99248        1.62786
C         -3.89821       -5.87153        0.36442
C         -2.48696       -5.97073       -0.22401
C         -1.96123       -4.57142       -0.57084
C         -2.02909       -3.61378        0.59547
H         -0.94154       -4.63134       -0.96557
H         -2.46923       -6.63006       -1.10332
H         -4.57256       -5.44210       -0.38723
H         -4.93950       -4.66415        1.84343
H         -3.97432       -2.90294        3.26082
H         -2.61385       -0.86557        3.23559
N         -0.74685       -0.22910        1.59205
P          0.84008        0.36380        1.11328
C          2.03190       -0.90618        1.54153
C          1.77931       -1.61304        2.69404
C          2.68757       -2.55738        3.14113
C          3.85408       -2.80393        2.43062
C          4.09803       -2.07231        1.27590
C          3.19288       -1.12410        0.83949
H          3.40432       -0.52994       -0.03168
H          5.00810       -2.24038        0.72588
C          4.82191       -3.82904        2.90988
H          2.49140       -3.11389        4.04157
H          0.86840       -1.42126        3.23929
C          1.15849        1.71184        2.26433
C          0.41368        1.75173        3.41995
C          0.59461        2.78025        4.32715
C          1.53232        3.77462        4.08641
C          2.28031        3.71562        2.91858
C          2.09715        2.68464        2.01775
H          2.68716        2.63215        1.11968
H          3.00665        4.48465        2.71821
C          1.70108        4.90474        5.04108
H          0.00142        2.82008        5.22471
H         -0.31680        0.98127        3.60539
H         -1.32177        0.60475        1.63313
H         -1.99537       -0.52355       -0.36034
C         -2.13681        1.77144       -2.96586
C         -1.59041        2.60244       -3.91335
C         -2.31774        2.93817       -5.03918
C         -3.60273        2.44517       -5.22188
C         -4.13370        1.59486       -4.26111
C         -3.40230        1.26174       -3.13427
H         -3.80913        0.59839       -2.38707
H         -5.12277        1.19334       -4.40117
C         -4.37855        2.78465       -6.44689
H         -1.88892        3.58333       -5.78683
H         -0.58802        2.96940       -3.77424
C         -1.88317        2.22553       -0.06988
C         -3.03239        1.79713        0.55334
C         -3.42487        2.38034        1.74446
C         -2.67450        3.40047        2.31251
C         -1.54399        3.84906        1.64460
C         -1.14735        3.25936        0.45962
H         -0.25578        3.59516       -0.04561
H         -0.96289        4.64965        2.06962
C         -3.09439        4.02704        3.59623
H         -4.31495        2.03969        2.24566
H         -3.60152        0.98617        0.12731
Cl         1.33979        2.76332       -2.79739
H          2.88307       -4.39895       -2.83267
H          1.36674       -5.92121       -0.90253
H          3.86415       -5.77842       -1.16810
H          0.25973       -4.57615        0.89797
H         -1.81836       -6.43724        0.51032
H         -2.55641       -4.15037       -1.39016
H         -3.61455       -5.59319        2.49482
H         -4.29942       -6.87192        0.57976
H          5.27293       -3.52443        3.85525
H          4.32616       -4.78831        3.06606
H          5.62680       -3.98448        2.19022
H          1.02340        5.72340        4.79495
H          1.49147        4.59018        6.06440
H          2.72046        5.29236        5.01649
H         -4.18354        2.06274       -7.24106
H         -5.45094        2.78365       -6.24678
H         -4.11286        3.77497       -6.81932
H         -2.24033        4.45467        4.12351
H         -3.81593        4.82588        3.42003
H         -3.55722        3.29355        4.25797
