111
-148.55151116
P         -2.44980        2.38786       -0.04687
P         -0.05013        0.39601        0.48413
C         -1.79858        2.19501        1.63217
C         -0.77374        1.30425        1.86234
C         -2.58208        4.17777       -0.49267
C         -1.78832        4.47730       -1.74526
C         -2.32537        2.92423        2.67896
H         -3.11065        3.63739        2.48871
C         -1.83729        2.74022        3.96113
H         -2.24922        3.30787        4.77949
C         -0.82722        1.82657        4.19353
H         -0.45175        1.67783        5.19258
C         -0.29425        1.10523        3.14029
H          0.49239        0.38537        3.30520
Pd        -1.32472        0.87920       -1.39384
Cl        -2.58701        1.59689       -3.10468
Cl        -0.21913       -0.67535       -2.57912
C         -4.10248        4.39726       -0.64116
C         -4.22053        1.87025       -0.23262
H         -2.17620        3.90736       -2.59100
H         -1.84030        5.53614       -2.01001
H         -0.73602        4.20927       -1.62272
H         -4.28930        5.14642       -1.42421
H         -4.51052        4.82998        0.28406
H         -4.21941        0.97573       -0.87066
C         -4.85143        3.07324       -0.96255
C         -4.85985        1.56225        1.10487
H         -2.18062        4.74378        0.35906
H         -5.91460        3.15225       -0.69226
H         -4.83241        2.90050       -2.04875
H         -4.91044        2.45903        1.72401
H         -5.88011        1.19004        0.98547
H         -4.28771        0.81349        1.65707
C         -0.98890       -4.04983        0.69613
C          0.36224       -3.62234        0.76201
C          0.62351       -2.26443        0.69931
C         -0.39549       -1.35087        0.64690
C         -1.70518       -1.75151        0.68538
C         -2.03753       -3.09520        0.74187
O         -1.29019       -5.43061        0.55319
C          1.54207       -4.60315        0.85136
H          1.63516       -1.90032        0.67080
H         -2.46926       -0.99371        0.64938
C         -3.52050       -3.49375        0.79650
C          4.44542        1.00274        0.01448
C          3.70411        0.33305       -0.99126
C          2.34056        0.18697       -0.80825
C          1.70363        0.72016        0.28149
C          2.40061        1.46526        1.19736
C          3.76596        1.66057        1.07174
O          5.86531        0.98436       -0.01767
C          4.35732       -0.26692       -2.24593
H          1.74407       -0.35275       -1.52211
H          1.86257        1.88999        2.02521
C          4.49248        2.54521        2.09720
C          1.98078       -5.00058       -0.56638
C          2.74525       -3.94905        1.56948
C          1.16114       -5.85453        1.66268
C         -3.71721       -4.79135        1.60065
C         -4.35680       -2.39825        1.49610
C         -4.05118       -3.66665       -0.63514
C         -1.36941       -5.87269       -0.79628
H          1.17903       -5.50125       -1.10291
H          2.26285       -4.11994       -1.14255
H          2.83698       -5.67398       -0.53624
H          3.53253       -4.68084        1.74924
H          3.18432       -3.14880        0.97533
H          2.44512       -3.53745        2.53276
H          2.01417       -6.52320        1.77530
H          0.81481       -5.57583        2.65735
H          0.36563       -6.41513        1.17831
H         -3.21924       -5.63279        1.12567
H         -3.30871       -4.68545        2.60508
H         -4.77422       -5.04126        1.68874
H         -5.37901       -2.73776        1.66172
H         -3.92835       -2.14012        2.46423
H         -4.41599       -1.49439        0.89206
H         -3.50970       -4.44502       -1.16652
H         -5.10747       -3.93420       -0.63074
H         -3.93905       -2.74189       -1.20090
H         -0.64300       -6.66765       -0.96396
H         -2.36278       -6.27614       -0.99160
H         -1.17050       -5.04593       -1.47948
C          6.44614       -0.11529        0.67231
C          3.36389       -0.26964       -3.43059
C          5.57814        0.56100       -2.68584
C          4.77481       -1.71662       -1.95568
C          4.94856        1.68060        3.28220
C          5.70190        3.25388        1.46045
C          3.55157        3.65117        2.62754
H          3.86119       -0.57079       -4.35221
H          2.54377       -0.96740       -3.26850
H          2.94293        0.72321       -3.58632
H          5.29664        1.60017       -2.85266
H          6.36128        0.54488       -1.93204
H          6.00301        0.17175       -3.61073
H          3.90952       -2.31632       -1.67542
H          5.23311       -2.17427       -2.83197
H          5.48956       -1.76588       -1.13782
H          5.63193        0.89868        2.95995
H          5.45793        2.28440        4.03283
H          4.09494        1.19887        3.75859
H          5.39277        3.83424        0.59178
H          6.17740        3.93117        2.16943
H          6.45366        2.53978        1.13369
H          4.09790        4.35612        3.25380
H          2.74778        3.24020        3.23661
H          3.10749        4.20983        1.80406
H          7.09981        0.25315        1.46272
H          5.66934       -0.74591        1.10676
H          7.04817       -0.70443       -0.01926
