171
-217.83985072
P         -1.45747        0.29667       -0.40373
P          1.64333       -0.76539        0.39466
C         -0.39772        1.07413       -1.63564
C          0.98372       -1.73507       -0.98024
C          0.47555        0.27991       -2.36773
C          1.32119        0.88733       -3.31582
C          1.22337        2.25359       -3.52544
C          0.33756        3.02374       -2.80080
C         -0.47060        2.42780       -1.85313
C          0.93244       -3.08972       -0.75004
C          0.39334       -3.93848       -1.69706
C         -0.11366       -3.41600       -2.86710
C         -0.08815       -2.05332       -3.11157
C          0.48094       -1.19025       -2.15616
Cl         0.57129       -0.99819        3.45962
Cl        -2.43284       -1.26309        2.30813
C         -0.68370       -1.53727       -4.37457
C          2.29542        0.08132       -4.10185
H          0.27822        4.08645       -2.97028
H         -1.16655        3.02001       -1.28467
H          1.31088       -3.48131        0.18284
H          0.36226       -5.00059       -1.51682
H          1.84616        2.71370       -4.27341
H         -0.55010       -4.06948       -3.60370
C         -4.35726       -2.45397       -2.54194
C         -4.05929       -1.21778       -3.10242
C         -3.15632       -0.40176       -2.43037
C         -2.59716       -0.80619       -1.24258
C         -2.90503       -2.02986       -0.70624
C         -3.78531       -2.88641       -1.35130
H         -5.06779       -3.08435       -3.04219
H         -2.87048        0.55239       -2.83751
H         -2.47394       -2.31017        0.23803
C         -4.03898        3.52622        1.52041
C         -3.20673        2.78121        2.34672
C         -2.40836        1.80900        1.76155
C         -2.45353        1.57281        0.40818
C         -3.30138        2.30649       -0.38522
C         -4.10018        3.30792        0.14984
H         -4.65929        4.28629        1.95460
H         -1.76322        1.21875        2.38555
H         -3.34107        2.10119       -1.44074
C          5.37027       -2.93488        1.79836
C          4.51736       -2.40802        2.76062
C          3.36961       -1.75940        2.32564
C          3.09614       -1.64325        0.98705
C          3.95218       -2.16701        0.04932
C          5.10858       -2.83095        0.43718
H          6.25786       -3.44248        2.12617
H          2.66357       -1.35646        3.02724
H          3.70910       -2.06594       -0.99569
C          3.08721        3.48168       -0.25638
C          1.97030        3.28681        0.54782
C          1.51292        1.98613        0.71838
C          2.15107        0.93504        0.10182
C          3.26436        1.14639       -0.67410
C          3.75984        2.43031       -0.86549
H          3.46336        4.47677       -0.40112
H          0.66508        1.79252        1.35153
H          3.75450        0.29575       -1.11458
Pd        -0.42555       -0.68959        1.47775
C         -4.65716       -1.83223       -5.47595
C         -4.77822       -0.75652       -4.37930
C         -4.18093        0.55655       -4.92372
C         -6.26379       -0.52231       -4.05156
H         -5.15030       -1.50801       -6.39226
H         -3.61305       -2.03193       -5.71249
H         -5.11762       -2.77037       -5.16966
H         -4.67646        0.85247       -5.84826
H         -4.30495        1.37220       -4.21189
H         -3.11852        0.44435       -5.13860
H         -6.80914       -0.17899       -4.93048
H         -6.73668       -1.43857       -3.69931
H         -6.37215        0.23025       -3.27084
C         -5.08536       -5.06356       -1.57770
C         -4.10449       -4.24635       -0.71571
C         -4.73791       -4.02026        0.66981
C         -2.80065       -5.05151       -0.56360
H         -6.03651       -4.54356       -1.69007
H         -4.67320       -5.25066       -2.56916
H         -5.29104       -6.03012       -1.11786
H         -4.99224       -4.96864        1.14250
H         -4.05771       -3.48870        1.33426
H         -5.64954       -3.42941        0.58417
H         -2.08700       -4.53295        0.07565
H         -2.99408       -6.02904       -0.12249
H         -2.33018       -5.20594       -1.53425
C         -1.74023        3.25897        4.33026
C         -3.17752        2.95297        3.87257
C         -3.65929        1.64618        4.53042
C         -4.09050        4.10414        4.33568
H         -1.69736        3.40516        5.40934
H         -1.06294        2.44345        4.08048
H         -1.37130        4.16604        3.85297
H         -3.66436        1.73371        5.61660
H         -4.67016        1.40171        4.20516
H         -3.01366        0.80947        4.26566
H         -5.12957        3.91399        4.06765
H         -4.04674        4.22022        5.41855
H         -3.78443        5.05023        3.88941
C         -5.80660        5.19023       -0.02130
C         -5.00880        4.11698       -0.78608
C         -6.00357        3.16365       -1.47436
C         -4.14185        4.81743       -1.84962
H         -5.13971        5.89564        0.47420
H         -6.44088        5.75830       -0.70174
H         -6.45298        4.73750        0.73035
H         -6.61025        2.64110       -0.73508
H         -6.67403        3.71027       -2.13726
H         -5.48485        2.41366       -2.06994
H         -3.60079        4.09476       -2.45950
H         -4.75565        5.42210       -2.51698
H         -3.40882        5.47198       -1.37829
C          6.20881       -1.88941        4.53864
C          4.85382       -2.56179        4.25094
C          4.93009       -4.05870        4.60294
C          3.78406       -1.90468        5.14572
H          7.01169       -2.35497        3.96829
H          6.17793       -0.83308        4.27215
H          6.46460       -1.96377        5.59546
H          3.98402       -4.55344        4.38395
H          5.71028       -4.56095        4.03221
H          5.14801       -4.19996        5.66141
H          2.80734       -2.36265        4.99120
H          4.03784       -2.01789        6.19953
H          3.70103       -0.83790        4.93916
C          6.51921       -2.30199       -1.56827
C          6.02842       -3.42665       -0.63790
C          5.23997       -4.46702       -1.45552
C          7.25721       -4.11930       -0.01827
H          7.05889       -1.54310       -1.00220
H          7.19000       -2.69295       -2.33310
H          5.68634       -1.81532       -2.07444
H          5.87040       -4.92333       -2.21847
H          4.86401       -5.25971       -0.80897
H          4.38615       -4.01241       -1.95688
H          7.85390       -3.41481        0.56093
H          6.95795       -4.93903        0.63461
H          7.89936       -4.53454       -0.79495
C          1.94054        5.79954        0.97779
C          1.30035        4.43850        1.31315
C          1.45935        4.18347        2.82293
C         -0.19299        4.51079        0.95067
H          2.99366        5.81902        1.25749
H          1.85972        6.01839       -0.08689
H          1.44232        6.60388        1.51898
H          0.99858        4.98055        3.40594
H          0.99727        3.24116        3.11349
H          2.51348        4.13281        3.09479
H         -0.69649        3.57081        1.16495
H         -0.69634        5.29444        1.51653
H         -0.32069        4.73076       -0.10835
C          6.05789        3.43258       -0.77720
C          5.03742        2.70415       -1.67265
C          4.69770        3.58201       -2.88931
C          5.68413        1.39741       -2.17147
H          6.99052        3.60898       -1.31287
H          5.67868        4.39815       -0.44510
H          6.28455        2.83892        0.10826
H          5.59259        3.80920       -3.46843
H          3.99427        3.07264       -3.54574
H          4.24794        4.52586       -2.58320
H          6.59516        1.60507       -2.73253
H          5.95089        0.75246       -1.33466
H          5.01069        0.84953       -2.82917
H         -1.67987       -1.95405       -4.52408
H          2.64000       -0.78375       -3.53291
H         -0.07278       -1.81222       -5.23558
H         -0.78038       -0.45118       -4.36056
H          3.17255        0.67299       -4.36721
H          1.84619       -0.27972       -5.02774
