87
-129.17823326
P         -1.72397       -0.37027        0.19448
P          1.49426        0.41940       -0.11975
C         -1.49474        0.93688       -1.03926
C          1.22886       -0.63349       -1.55304
C         -0.64190        0.88587       -2.13956
C         -0.50708        2.03310       -2.94547
C         -1.23736        3.16867       -2.64053
C         -2.07780        3.20156       -1.54984
C         -2.19691        2.08329       -0.74737
C          2.06484       -1.69283       -1.80751
C          1.86788       -2.47182       -2.93077
C          0.82920       -2.18303       -3.79197
C         -0.02754       -1.12132       -3.55083
C          0.18599       -0.31687       -2.41366
Cl         1.28619        1.74240        2.87952
Cl        -1.28380       -0.07284        3.44840
H         -2.63109        4.09649       -1.31692
H         -2.83450        2.10307        0.12431
H          2.87883       -1.90401       -1.13444
H          2.52162       -3.30471       -3.13138
H         -1.13058        4.04051       -3.26358
H          0.67124       -2.79106       -4.66651
C         -0.34827       -4.62600       -0.63146
C         -1.12137       -3.97627       -1.58336
C         -1.53774       -2.67475       -1.32585
C         -1.18206       -2.04861       -0.15473
C         -0.45485       -2.71789        0.80259
C         -0.02293       -4.00730        0.55909
H         -0.01386       -5.63061       -0.82713
C         -1.48067       -4.65985       -2.85565
H         -2.13504       -2.14619       -2.04904
H         -0.26589       -2.24277        1.75228
H          0.55315       -4.53341        1.30268
C         -6.18712       -0.57119        1.06781
C         -5.72552       -0.61791       -0.23301
C         -4.36756       -0.55183       -0.48609
C         -3.48413       -0.44091        0.56263
C         -3.94368       -0.39510        1.85671
C         -5.30343       -0.45142        2.13117
H         -7.24348       -0.62880        1.26824
H         -6.42183       -0.70719       -1.05069
H         -3.99136       -0.58211       -1.49675
H         -3.23665       -0.31244        2.66248
C         -5.79500       -0.42641        3.53584
C          4.88951       -1.27992        2.40022
C          4.97761        0.00748        1.90833
C          3.95358        0.52216        1.13585
C          2.85090       -0.25223        0.86176
C          2.76043       -1.53298        1.35375
C          3.78240       -2.07080        2.12501
H          5.68271       -1.68014        3.00842
H          5.84063        0.61330        2.13104
H          4.00412        1.52882        0.75409
H          1.88998       -2.12556        1.13432
C          3.66275       -3.45058        2.66972
C          2.62368        4.55411       -1.63127
C          1.79679        4.43836       -0.53138
C          1.45903        3.18740       -0.05221
C          1.94419        2.06469       -0.68006
C          2.77737        2.17552       -1.76899
C          3.12381        3.42647       -2.26756
H          2.89244        5.52785       -2.00398
H          1.41909        5.32162       -0.04299
H          0.83641        3.08153        0.82053
H          3.15209        1.28293       -2.24278
C          4.03345        3.55245       -3.43856
Pd        -0.05180        0.43029        1.64531
C          0.41220        2.06281       -4.11760
C         -1.14986       -0.85496       -4.49221
H          0.97122        2.99905       -4.14818
H          1.13815        1.25020       -4.07934
H         -0.14485        1.97552       -5.05114
H         -0.78155       -0.42769       -5.42565
H         -1.68263       -1.77577       -4.73358
H         -1.87303       -0.15961       -4.06433
H         -1.96763       -5.61609       -2.65920
H         -2.16438       -4.05494       -3.45270
H         -0.59116       -4.85199       -3.45720
H         -5.10360        0.11353        4.18447
H         -6.76635        0.06540        3.60440
H         -5.90076       -1.43926        3.92686
H          4.63030       -3.83412        2.99638
H          2.98627       -3.47054        3.52535
H          3.27180       -4.13506        1.91537
H          5.06533        3.69308       -3.11385
H          3.99648        2.65944       -4.06432
H          3.75638        4.40446       -4.06113
