111
-148.55374256
P         -1.63878        2.83210       -0.00664
P         -0.54246       -0.08700        0.49217
C         -1.65043        2.13510        1.67172
C         -1.23838        0.83492        1.87431
C         -0.40200        4.20384       -0.10865
C          0.70144        3.85571       -1.08532
C         -2.03397        2.90719        2.74994
H         -2.31379        3.93609        2.59489
C         -2.03126        2.36433        4.02333
H         -2.33539        2.96621        4.86410
C         -1.63308        1.05577        4.21943
H         -1.62567        0.63541        5.21160
C         -1.22421        0.29134        3.14156
H         -0.87534       -0.71993        3.27985
Pd        -1.32328        1.00027       -1.39076
Cl        -2.54306        2.02831       -2.96264
Cl        -0.84481       -0.85700       -2.56446
C         -1.24835        5.42559       -0.52100
C         -3.18631        3.76673       -0.41049
H          0.29045        3.66680       -2.07919
H          1.42764        4.66717       -1.17395
H          1.23758        2.95523       -0.77862
H         -1.12768        5.58738       -1.60087
H         -0.86114        6.33820       -0.04345
H         -3.37358        3.59039       -1.47736
C         -2.75732        5.22949       -0.19817
C         -4.37698        3.31594        0.40844
H         -0.00641        4.33019        0.90762
H         -2.95342        5.51139        0.84528
H         -3.38062        5.90278       -0.80648
H         -4.56913        2.24941        0.27111
H         -4.21132        3.48346        1.47281
H         -5.28120        3.86150        0.12922
C         -0.85205       -4.61984        0.71339
C          0.21971       -3.95104        1.35850
C          0.27967       -2.57021        1.26712
C         -0.70977       -1.86016        0.63851
C         -1.80560       -2.49248        0.11358
C         -1.92491       -3.87175        0.16411
O         -0.82956       -6.03364        0.57949
C          1.33297       -4.69659        2.11077
H          1.11816       -2.02705        1.66868
H         -2.55724       -1.89050       -0.36758
C         -3.18030       -4.53330       -0.42496
C          3.77318        1.22910       -0.11569
C          3.19264        0.27659       -0.99184
C          1.87598       -0.09212       -0.77749
C          1.17611        0.37902        0.30044
C          1.76304        1.22113        1.20753
C          3.07358        1.63843        1.04861
O          5.03459        1.80419       -0.42471
C          3.94307       -0.32480       -2.18939
H          1.35636       -0.72268       -1.47790
H          1.17315        1.56734        2.03755
C          3.69968        2.55495        2.11096
C          1.88441       -3.82876        3.26513
C          0.80415       -5.99699        2.74273
C          2.48195       -5.00696        1.13916
C         -4.40652       -3.60387       -0.27825
C         -2.95140       -4.80921       -1.91894
C         -3.51962       -5.84136        0.31246
C         -0.17630       -6.49171       -0.59797
H          2.58106       -4.39921        3.87906
H          2.42449       -2.95886        2.89439
H          1.07663       -3.48259        3.90944
H          1.57823       -6.49052        3.32985
H         -0.03922       -5.78848        3.40018
H          0.46914       -6.69992        1.98429
H          2.14493       -5.63347        0.31681
H          2.88387       -4.08833        0.71216
H          3.29377       -5.52645        1.64758
H         -4.31916       -2.71855       -0.90618
H         -5.31953       -4.11821       -0.57735
H         -4.52719       -3.28184        0.75573
H         -2.11020       -5.48101       -2.07145
H         -3.83205       -5.26355       -2.37208
H         -2.73582       -3.88350       -2.45212
H         -3.63937       -5.65986        1.38001
H         -4.44585       -6.27461       -0.06419
H         -2.73531       -6.58343        0.18672
H          0.18504       -5.64660       -1.18539
H          0.66339       -7.13105       -0.32607
H         -0.87146       -7.07985       -1.19686
C          4.95695        2.97242       -1.23244
C          5.45201       -0.43248       -1.90529
C          3.43751       -1.75675       -2.48113
C          3.69504        0.54582       -3.43063
C          3.44270        4.02197        1.73432
C          3.07441        2.28823        3.49934
C          5.21164        2.29692        2.24166
H          5.90089        0.54720       -1.76338
H          5.63137       -1.01542       -1.00251
H          5.97260       -0.91679       -2.73106
H          4.05149       -2.23616       -3.24314
H          3.47723       -2.37214       -1.58269
H          2.41320       -1.75639       -2.85050
H          4.20521        0.13744       -4.30255
H          2.63018        0.59902       -3.65650
H          4.05112        1.56182       -3.27761
H          2.37350        4.22407        1.68066
H          3.87613        4.69616        2.47255
H          3.87381        4.26258        0.76570
H          3.60438        2.84096        4.27473
H          2.03229        2.60216        3.53957
H          3.12429        1.22891        3.75004
H          5.40377        1.24844        2.46698
H          5.64486        2.90037        3.03893
H          5.73675        2.54186        1.32176
H          5.49272        2.80848       -2.16719
H          3.91665        3.21809       -1.44877
H          5.42739        3.80720       -0.71314
