111
-148.54820432
P         -2.40413        2.28693       -0.14647
P         -0.15916        0.12780        0.46934
C         -1.87057        2.00582        1.55943
C         -0.88922        1.07559        1.82065
C         -2.46976        4.10190       -0.50160
C         -1.63320        4.44794       -1.71393
C         -2.40638        2.75180        2.58957
H         -3.16239        3.48953        2.37515
C         -1.95856        2.55909        3.88505
H         -2.37792        3.13942        4.69065
C         -0.96630        1.63329        4.14392
H         -0.60900        1.49070        5.15051
C         -0.42445        0.89501        3.10705
H          0.37123        0.18949        3.28952
Pd        -1.07508        0.97532       -1.49665
Cl        -2.22188        1.64020       -3.30229
Cl         0.47426       -0.21242       -2.61595
C         -3.97848        4.36940       -0.68234
C         -4.16129        1.81844       -0.48934
H         -1.64540        5.52130       -1.91768
H         -0.59356        4.13994       -1.58118
H         -2.01499        3.94033       -2.60112
H         -4.12196        5.18409       -1.40707
H         -4.41016        4.73404        0.26131
H         -4.12624        0.99050       -1.21095
C         -4.74068        3.09296       -1.13688
C         -4.87517        1.38628        0.77330
H         -2.07906        4.61138        0.38987
H         -5.81099        3.17366       -0.89725
H         -4.68717        3.01037       -2.23251
H         -4.91766        2.20563        1.49259
H         -5.90266        1.07742        0.56674
H         -4.36054        0.55078        1.25407
C         -1.02333       -4.34658        0.79298
C         -0.49413       -3.80627       -0.40589
C         -0.26222       -2.44338       -0.46124
C         -0.47182       -1.63485        0.62471
C         -0.89776       -2.16985        1.81291
C         -1.14277       -3.52668        1.94394
O         -1.46358       -5.69661        0.83108
C         -0.21330       -4.66375       -1.65026
H          0.06994       -1.98041       -1.37258
H         -1.05477       -1.50663        2.64364
C         -1.55696       -4.08142        3.31660
C          4.21546        1.32155        0.08452
C          3.20383        2.30802        0.20555
C          1.89263        1.88613        0.35192
C          1.57024        0.55415        0.31670
C          2.52960       -0.39771        0.09430
C          3.85894       -0.04348       -0.06566
O          5.58479        1.69499        0.14150
C          3.50685        3.81444        0.19997
H          1.09630        2.59623        0.49948
H          2.22232       -1.42693        0.04009
C          4.89256       -1.13199       -0.39529
C         -1.47743       -4.72272       -2.52112
C          0.93123       -4.05382       -2.49101
C          0.23005       -6.08428       -1.25623
C         -3.08704       -4.03385        3.44501
C         -1.05158       -5.52305        3.50803
C         -0.94192       -3.23608        4.45569
C         -2.83251       -5.87221        0.48744
H         -1.77749       -3.72195       -2.83112
H         -1.30618       -5.31684       -3.41837
H         -2.31008       -5.16458       -1.97945
H          1.81639       -3.89211       -1.87787
H          1.20842       -4.71979       -3.30777
H          0.64375       -3.10356       -2.93820
H         -0.55803       -6.61425       -0.72735
H          0.48901       -6.67223       -2.13641
H          1.10251       -6.04664       -0.60473
H         -3.45049       -3.01162        3.34192
H         -3.56685       -4.63419        2.67599
H         -3.40920       -4.41045        4.41551
H         -1.28945       -5.89262        4.50520
H         -1.50448       -6.20172        2.78976
H          0.02896       -5.57114        3.37723
H         -1.37392       -2.23723        4.49615
H         -1.12399       -3.70149        5.42413
H          0.13604       -3.13976        4.32837
H         -2.91091       -6.53082       -0.37736
H         -3.36141       -6.33904        1.31818
H         -3.29345       -4.91115        0.25608
C          6.13235        1.69831        1.45377
C          4.72745        4.13200       -0.68273
C          2.31407        4.60782       -0.38122
C          3.75524        4.28741        1.64020
C          4.23056       -2.29530       -1.16766
C          6.01087       -0.57435       -1.29455
C          5.48649       -1.68675        0.90794
H          4.90125        5.20625       -0.73975
H          5.63152        3.67325       -0.29040
H          4.57578        3.75831       -1.69482
H          1.44501        4.56853        0.27391
H          2.57239        5.65917       -0.50568
H          2.02827        4.21586       -1.35697
H          4.59862        3.76597        2.08651
H          3.96580        5.35616        1.66965
H          2.88163        4.09785        2.26357
H          4.98066       -3.00017       -1.52551
H          3.54286       -2.85435       -0.53499
H          3.68098       -1.92305       -2.03199
H          6.70890       -1.35913       -1.58487
H          5.59191       -0.13981       -2.20157
H          6.57955        0.20013       -0.78565
H          4.70384       -2.10547        1.54019
H          5.98928       -0.90775        1.47554
H          6.21158       -2.47375        0.70211
H          6.46855        2.70323        1.70816
H          5.38645        1.36985        2.17864
H          6.99449        1.03253        1.49040
