105
-153.05870429
Cl         0.28332        3.21224        2.36146
Pd        -0.21008        1.79217        0.69053
P         -0.67718        0.43027       -1.21849
N          0.43135       -0.86538       -1.68161
C          0.45127       -2.24110       -1.40593
C         -0.05955       -2.84047       -0.21783
C          0.19355       -4.20882        0.02412
C         -0.15756       -4.79736        1.37186
C          0.62753       -6.07443        1.70289
C          0.53704       -7.06826        0.54154
C          1.11736       -6.46371       -0.74784
C          0.83741       -4.99106       -0.93825
C          1.28807       -4.39115       -2.10648
C          1.12339       -3.04854       -2.32237
H          1.51180       -2.59293       -3.21694
H          1.80087       -4.99392       -2.83703
H          2.20417       -6.61010       -0.76225
H          1.04306       -8.01045        0.79515
H          1.67932       -5.81792        1.88128
H          0.01048       -4.04050        2.14839
C         -0.68504       -2.04298        0.87421
C          0.14619       -1.17828        1.63670
C         -0.37021       -0.55275        2.77044
C         -1.67696       -0.75201        3.13432
C         -2.51864       -1.57761        2.39432
C         -3.94089       -1.75106        2.87775
C         -4.84490       -2.61484        1.97743
C         -4.05386       -3.73680        1.29664
C         -2.91849       -3.13629        0.45833
C         -2.02110       -2.23444        1.26516
H         -2.33623       -3.92009       -0.03867
H         -4.70936       -4.36962        0.68175
H         -5.30336       -1.98305        1.20684
H         -4.38416       -0.75595        3.01037
H         -2.07173       -0.25266        4.00286
H          0.25734        0.12178        3.32484
N          1.39691       -0.85722        1.10059
P          1.87680        0.81208        1.06840
C          2.70343        1.13902       -0.48855
C          2.43628        2.30700       -1.16309
C          2.91255        2.48000       -2.44903
C          3.64430        1.47839       -3.07174
C          3.92553        0.31710       -2.36475
C          3.45626        0.14835       -1.07420
H          3.63814       -0.76900       -0.53627
H          4.50521       -0.45894       -2.83496
C          4.14581        1.66133       -4.46168
H          2.69632        3.38735       -2.98680
H          1.83427        3.06921       -0.69405
C          2.84369        1.27475        2.49860
C          3.04367        0.34296        3.48853
C          3.78263        0.67824        4.60908
C          4.32015        1.95169        4.74312
C          4.11720        2.87364        3.72438
C          3.37854        2.53587        2.60461
H          3.20980        3.25166        1.81570
H          4.53967        3.85977        3.81446
C          5.13470        2.30943        5.93738
H          3.94647       -0.04862        5.38614
H          2.62519       -0.64416        3.37321
H          1.32973       -0.96353        0.08946
H          1.27217       -0.43189       -2.04966
C         -0.52901        1.63998       -2.54325
C         -0.94507        2.93966       -2.38021
C         -0.78738        3.85159       -3.40583
C         -0.21251        3.46787       -4.60957
C          0.17330        2.14453       -4.77101
C          0.01510        1.23604       -3.74001
H          0.31617        0.20929       -3.86704
H          0.60228        1.83046       -5.70719
C         -0.05329        4.44493       -5.72173
H         -1.11183        4.87007       -3.27723
H         -1.40231        3.23386       -1.45129
C         -2.33214       -0.24660       -1.39812
C         -3.42201        0.19607       -0.68754
C         -4.67650       -0.32197       -0.94486
C         -4.85446       -1.28934       -1.92458
C         -3.74960       -1.71072       -2.65150
C         -2.49436       -1.19043       -2.38576
H         -1.63245       -1.51758       -2.94547
H         -3.87664       -2.45129       -3.42243
C         -6.20454       -1.84762       -2.21139
H         -5.52942        0.03190       -0.39131
H         -3.29555        0.97131        0.04682
Cl        -2.25206        2.70304        0.50923
H          0.73946       -7.00646       -1.62367
H          0.26954       -6.52763        2.63819
H         -0.51473       -7.33546        0.37813
H         -1.22957       -5.01795        1.40266
H         -3.63067       -4.39939        2.06171
H         -3.34912       -2.54875       -0.35599
H         -3.90547       -2.18832        3.88288
H         -5.68615       -3.02770        2.55158
H          4.19064        0.70895       -4.99184
H          3.49361        2.32543       -5.03083
H          5.14724        2.09371       -4.45880
H          5.04385        3.37093        6.17191
H          4.81303        1.74845        6.81593
H          6.18971        2.09138        5.76618
H          0.81451        4.20252       -6.33684
H         -0.93354        4.44533       -6.36595
H          0.08506        5.45730       -5.33961
H         -6.63504       -1.38362       -3.09978
H         -6.15371       -2.92377       -2.38345
H         -6.88844       -1.67810       -1.37855
