58
-89.86769469
P          1.49316        0.39786        0.75208
C          1.77301        2.05821        0.12819
C          2.04879        2.20853       -1.21130
C          2.25718        3.47020       -1.73613
C          2.19288        4.57464       -0.90973
C          1.92617        4.41921        0.43664
C          1.71723        3.15512        0.95818
H          1.50574        3.02215        2.00665
H          2.09997        1.33034       -1.83506
C          3.05896       -0.46826        0.91357
C          4.18891        0.26379        1.20047
C          5.40710       -0.37664        1.34211
C          5.48352       -1.74768        1.19659
C          4.34723       -2.47814        0.91000
C          3.13078       -1.83513        0.76967
H          2.24055       -2.39448        0.53122
H          4.11267        1.33424        1.30830
C          0.69209        0.39875        2.41131
C          0.14614       -0.98981        2.73717
C         -1.30694       -1.20117        2.32926
P         -1.72781       -0.57656        0.64513
C         -3.16663       -1.44104        0.00756
C         -3.20980       -2.81603        0.04455
C         -4.30663       -3.48343       -0.47116
C         -5.35004       -2.76832       -1.02508
C         -5.29835       -1.38914       -1.06829
C         -4.20034       -0.72497       -0.55195
H         -4.14190        0.35091       -0.58776
H         -2.37844       -3.36415        0.45855
C         -2.07016        1.18735        0.77006
C         -1.39606        2.09762       -0.01141
C         -1.64678        3.44928        0.12905
C         -2.57956        3.88406        1.04851
C         -3.26316        2.96920        1.82419
C         -3.00599        1.61689        1.68380
H         -3.53703        0.89304        2.28159
H         -0.67327        1.75724       -0.73267
Pd         0.12466       -0.72762       -0.74698
Cl         1.94812       -0.99341       -2.03707
Cl        -1.21917       -1.74730       -2.23051
H         -1.58057       -2.25743        2.37584
H         -1.97645       -0.67862        3.01512
H          0.78050       -1.73833        2.24215
H          0.25389       -1.19858        3.81336
H          1.46348        0.71210        3.11916
H         -0.09622        1.15235        2.43836
H          2.46938        3.58938       -2.78585
H          1.87823        5.28177        1.08082
H          6.29378        0.19433        1.56358
H          4.40756       -3.54751        0.79122
H         -4.34210       -4.56020       -0.44682
H         -6.10889       -0.83072       -1.50700
H         -1.10921        4.16135       -0.47530
H         -3.99489        3.30694        2.53958
H          2.35405        5.55995       -1.31578
H          6.43196       -2.24824        1.30431
H         -6.20327       -3.28779       -1.42989
H         -2.77566        4.93809        1.15942
