105
-153.06978736
Cl         0.40900        3.22687        2.36222
Pd        -0.17085        1.81941        0.70440
P         -0.72252        0.46939       -1.15992
N          0.43130       -0.79796       -1.55893
C          0.50550       -2.18450       -1.34856
C         -0.02188       -2.84644       -0.20679
C          0.27830       -4.20861        0.00406
C         -0.05869       -4.85519        1.32694
C         -0.21909       -6.37776        1.22261
C          1.02372       -6.99474        0.57263
C          1.26715       -6.41031       -0.83034
C          0.98863       -4.93014       -0.95961
C          1.46251       -4.26967       -2.08608
C          1.25355       -2.92654       -2.26120
H          1.66019       -2.42162       -3.12044
H          2.02066       -4.82614       -2.82004
H          2.30220       -6.60024       -1.14184
H          1.89745       -6.79715        1.20642
H         -0.41424       -6.82414        2.20795
H          0.74590       -4.62007        2.03416
C         -0.71056       -2.08024        0.85958
C          0.04981       -1.15088        1.61024
C         -0.56061       -0.47069        2.66272
C         -1.87917       -0.69278        2.96564
C         -2.64486       -1.60286        2.24414
C         -4.08106       -1.81325        2.66822
C         -4.89427       -2.79014        1.79676
C         -4.01310       -3.90446        1.22227
C         -2.87398       -3.29438        0.39581
C         -2.05914       -2.30383        1.18711
H         -2.23225       -4.07749       -0.02349
H         -4.60491       -4.60958        0.62159
H         -5.35925       -2.24155        0.96880
H         -4.57828       -0.83549        2.70013
H         -2.33945       -0.15423        3.77661
H          0.01428        0.24874        3.21811
N          1.37065       -0.89503        1.24229
P          1.88918        0.77767        1.08759
C          2.73165        1.01920       -0.47568
C          2.42539        2.11872       -1.24260
C          2.93111        2.22289       -2.52441
C          3.73610        1.22197       -3.04939
C          4.05937        0.13505       -2.24859
C          3.55868        0.03407       -0.96311
H          3.78367       -0.82492       -0.35066
H          4.69801       -0.63757       -2.64173
C          4.27235        1.33244       -4.43398
H          2.68457        3.07567       -3.13377
H          1.77644        2.88443       -0.84811
C          2.85980        1.33375        2.47943
C          2.90103        0.55453        3.61012
C          3.63147        0.97499        4.70729
C          4.32783        2.17601        4.67187
C          4.26615        2.95131        3.52105
C          3.53556        2.52868        2.42501
H          3.48052        3.12906        1.53067
H          4.78945        3.89166        3.49038
C          5.09005        2.64445        5.86232
H          3.66252        0.37295        5.59927
H          2.36440       -0.38067        3.62462
H          1.67448       -1.35195        0.38972
H          1.28672       -0.30990       -1.79843
C         -0.58955        1.65325       -2.50558
C         -1.03707        2.94557       -2.37263
C         -0.89879        3.83559       -3.42014
C         -0.31095        3.43640       -4.61292
C          0.11137        2.12022       -4.74052
C         -0.02773        1.23326       -3.68816
H          0.30695        0.21300       -3.78213
H          0.55370        1.79518       -5.66668
C         -0.17452        4.38889       -5.74923
H         -1.24787        4.84880       -3.31709
H         -1.49678        3.25038       -1.44799
C         -2.37172       -0.21512       -1.31199
C         -3.43991        0.23041       -0.57155
C         -4.70255       -0.28047       -0.80208
C         -4.90878       -1.23650       -1.78789
C         -3.82451       -1.65700       -2.54589
C         -2.55967       -1.14840       -2.30461
H         -1.71225       -1.47358       -2.88764
H         -3.97516       -2.38902       -3.32077
C         -6.26665       -1.78957       -2.04728
H         -5.53948        0.07165       -0.22362
H         -3.28861        1.00305        0.16139
Cl        -2.19726        2.78413        0.60696
H          0.64311       -6.94004       -1.56012
H         -1.10142       -6.60813        0.61241
H          0.93533       -8.08947        0.52941
H         -0.95688       -4.40373        1.76139
H         -3.59022       -4.49499        2.04449
H         -3.29492       -2.77920       -0.47126
H         -4.07755       -2.16951        3.70544
H         -5.73183       -3.21513        2.36745
H          5.23185        1.85126       -4.43782
H          4.41957        0.34723       -4.87871
H          3.58711        1.88615       -5.07755
H          5.92206        3.28665        5.57019
H          4.44608        3.21296        6.53459
H          5.50216        1.80338        6.42162
H         -1.04523        4.33750       -6.40428
H         -0.08086        5.41586       -5.39341
H          0.71036        4.16415       -6.34644
H         -6.23641       -2.87772       -2.12033
H         -6.96120       -1.53051       -1.24700
H         -6.67180       -1.39958       -2.98197
