59
-75.79889075
Cl         1.55084        0.72437        2.30711
P          1.55372        0.09525       -0.79777
P         -1.62936       -0.22344       -0.78754
C          0.55091        0.46842       -2.30422
H          0.24457        1.51614       -2.26651
H          1.18805        0.34671       -3.18562
C         -0.64506       -0.44054       -2.33600
H         -0.32817       -1.48542       -2.38888
H         -1.29396       -0.25003       -3.19649
C          2.50957       -1.46434       -1.10132
H          2.33113       -1.68631       -2.16208
C          2.95942        1.27862       -0.57583
H          3.05857        1.44024        0.50429
C         -2.72426       -1.66723       -0.40763
H         -2.65323       -1.82507        0.67566
C         -2.90748        1.10873       -0.96648
H         -2.90685        1.38994       -2.02647
C          3.97765       -1.04220       -0.90378
H          4.30339       -1.31053        0.10816
H          4.63302       -1.61150       -1.58014
C          4.16696        0.48618       -1.10664
H          4.28932        0.70242       -2.17694
H          5.09467        0.83348       -0.62665
C         -4.12194       -1.14498       -0.77944
H         -4.32968       -1.40251       -1.82729
H         -4.89412       -1.66136       -0.18876
C         -4.22071        0.39302       -0.59343
H         -4.45482        0.61485        0.45695
H         -5.05986        0.80543       -1.17397
C          2.03125       -2.63409       -0.23941
H          2.48245       -3.56418       -0.61261
H          0.95092       -2.75597       -0.39442
C          2.71230        2.60680       -1.28027
H          2.59254        2.42200       -2.35583
H          1.74956        3.01709       -0.94706
C         -2.30666       -2.93208       -1.14774
H         -2.36432       -2.74656       -2.22829
H         -1.24735       -3.13593       -0.94320
C         -2.62587        2.33058       -0.09646
H         -3.50733        2.98675       -0.11237
H         -2.52966        2.00497        0.94742
C          2.31702       -2.49822        1.25049
H          3.38300       -2.57328        1.46994
H          1.81877       -3.27674        1.83304
H          1.97881       -1.53771        1.63698
C          3.82012        3.62160       -1.04017
H          4.78082        3.25501       -1.40615
H          3.93940        3.82857        0.02501
H          3.62057        4.57241       -1.53969
C         -3.14919       -4.14314       -0.77585
H         -3.09012       -4.34965        0.29448
H         -2.82724       -5.04422       -1.30292
H         -4.20210       -3.98311       -1.01467
C         -1.39346        3.11413       -0.51752
H         -1.24845        4.00812        0.09332
H         -0.49038        2.51182       -0.42330
H         -1.46404        3.43456       -1.55862
Cl        -1.72839        0.03743        2.36447
Pd        -0.05973        0.11504        0.86968
