58
-89.86259706
P          1.74352       -0.20755        0.86019
C          1.90592        1.57297        0.65191
C          3.05379        2.14824        0.15685
C          3.11524        3.51889       -0.01805
C          2.02248        4.30409        0.29433
C          0.86674        3.72175        0.77499
C          0.81229        2.35205        0.95175
H         -0.09741        1.87939        1.27656
H          3.89015        1.52401       -0.10950
C          3.26551       -1.09025        0.48539
C          3.25477       -2.17740       -0.35839
C          4.42868       -2.86244       -0.61481
C          5.60530       -2.46051       -0.01439
C          5.60959       -1.37997        0.84524
C          4.43364       -0.69659        1.09902
H          4.41937        0.13871        1.78160
H          2.32959       -2.48201       -0.82067
C          1.31354       -0.61199        2.60961
C         -0.05602       -1.24442        2.78741
C         -1.20397       -0.27619        2.54368
P         -1.64986       -0.10118        0.76038
C         -2.88854       -1.35556        0.41776
C         -4.21300       -0.99298        0.32797
C         -5.17259       -1.95332        0.06256
C         -4.79663       -3.27069       -0.11138
C         -3.46607       -3.62936       -0.02113
C         -2.50878       -2.66681        0.24518
H         -1.46553       -2.93222        0.30760
H         -4.48959        0.04061        0.46092
C         -2.32349        1.53893        0.43627
C         -2.77502        2.33240        1.46757
C         -3.25653        3.60118        1.19939
C         -3.28890        4.06658       -0.10019
C         -2.84917        3.26364       -1.13327
C         -2.36930        1.99681       -0.86042
H         -2.03962        1.35022       -1.65624
H         -2.75695        1.96001        2.47866
Pd         0.08783       -0.46490       -0.75399
Cl         1.74226       -0.35960       -2.26840
Cl        -1.54048       -0.75134       -2.27880
H         -2.12029       -0.60821        3.03905
H         -0.96571        0.70574        2.95511
H         -0.15448       -2.11062        2.11971
H         -0.13305       -1.65350        3.80703
H          2.10299       -1.27750        2.96880
H          1.39524        0.30892        3.19057
H          4.01295        3.97221       -0.40526
H          0.00343        4.32743        0.99626
H          4.42386       -3.70716       -1.28392
H          6.52612       -1.07003        1.31979
H         -6.21035       -1.67247       -0.01100
H         -3.17220       -4.65657       -0.16166
H         -3.60615        4.22561        2.00514
H         -2.88055        3.62118       -2.14934
H          2.06832        5.37155        0.15252
H          6.52091       -2.99278       -0.21460
H         -5.54268       -4.01988       -0.32077
H         -3.66290        5.05569       -0.30884
