111
-148.55507719
P         -2.35137        2.33676        0.60226
P          0.05577        0.28262        0.42744
C         -1.36608        1.98674        2.07655
C         -0.35268        1.05668        2.00682
C         -2.48667        4.14918        0.26967
C         -1.64217        4.53354       -0.92593
C         -1.65280        2.60991        3.27388
H         -2.44273        3.34237        3.31625
C         -0.92991        2.28434        4.40863
H         -1.15289        2.76859        5.34530
C          0.06859        1.33141        4.34381
H          0.62472        1.07000        5.22903
C          0.35570        0.71329        3.13993
H          1.12503       -0.04057        3.07623
Pd        -1.52581        1.03693       -1.11304
Cl        -3.32274        1.60873       -2.32522
Cl        -0.64670       -0.40799       -2.59209
C         -4.00026        4.35524        0.07341
C         -4.14259        1.91060        0.82521
H         -1.96280        3.98770       -1.81564
H         -1.72238        5.60087       -1.14554
H         -0.58785        4.29855       -0.75956
H         -4.22791        4.28879       -0.99946
H         -4.29116        5.37318        0.37432
H         -4.43064        1.35226       -0.07531
C         -4.82990        3.28881        0.84246
C         -4.38312        1.07717        2.06703
H         -2.14035        4.66032        1.17742
H         -4.95782        3.60771        1.88592
H         -5.84799        3.21294        0.43140
H         -4.10957        1.63041        2.96647
H         -5.43460        0.79647        2.16178
H         -3.78752        0.16234        2.05585
C         -0.93849       -4.14825        0.70746
C         -1.97412       -3.18080        0.64589
C         -1.61765       -1.84368        0.59535
C         -0.30312       -1.46622        0.51053
C          0.69700       -2.40068        0.45015
C          0.41025       -3.75449        0.51043
O         -1.24699       -5.50110        1.00980
C         -3.46483       -3.55294        0.64121
H         -2.36861       -1.07293        0.61789
H          1.71180       -2.05492        0.36064
C          1.55740       -4.76984        0.39044
C          4.35573        1.13073       -0.87256
C          3.47231        0.43211       -1.73289
C          2.17218        0.22522       -1.30673
C          1.75277        0.61861       -0.06335
C          2.63123        1.21499        0.80433
C          3.94891        1.44872        0.44802
O          5.63227        1.53923       -1.34303
C          3.89002       -0.06599       -3.12557
H          1.44853       -0.22955       -1.95816
H          2.27055        1.51113        1.77210
C          4.90676        2.05669        1.48554
C         -3.99461       -3.54879        2.08282
C         -4.27364       -2.53050       -0.19078
C         -3.69240       -4.93214       -0.00372
C          2.67942       -4.21724       -0.51697
C          2.13918       -5.04498        1.78499
C          1.07310       -6.08375       -0.24972
C         -1.26628       -5.78857        2.40229
H         -3.46433       -4.27183        2.69856
H         -3.86529       -2.56738        2.53848
H         -5.05543       -3.79645        2.10977
H         -5.30562       -2.85887       -0.31139
H         -4.30423       -1.55278        0.28655
H         -3.84137       -2.41145       -1.18400
H         -4.75512       -5.16411       -0.06884
H         -3.27696       -4.95726       -1.01057
H         -3.21800       -5.72279        0.57210
H          3.43934       -4.97671       -0.69946
H          2.27559       -3.90999       -1.48095
H          3.18281       -3.36337       -0.06611
H          2.51413       -4.12571        2.23440
H          1.38418       -5.45565        2.45159
H          2.96363       -5.75550        1.73112
H          0.33831       -6.58311        0.37690
H          0.61132       -5.89121       -1.21753
H          1.90169       -6.77532       -0.40024
H         -2.25526       -6.14548        2.68926
H         -0.54211       -6.57254        2.62336
H         -1.02138       -4.89532        2.97836
C          5.64704        2.83129       -1.93724
C          3.62796        1.03931       -4.15969
C          5.37386       -0.47526       -3.14619
C          3.07438       -1.31590       -3.52727
C          6.34569        1.55105        1.27520
C          4.86265        3.58879        1.38383
C          4.49265        1.64683        2.91773
H          2.57261        1.31082       -4.17276
H          4.19749        1.93685       -3.93145
H          3.90435        0.71063       -5.16116
H          5.57375       -1.23048       -2.38675
H          5.65334       -0.88682       -4.11572
H          6.02318        0.37427       -2.95036
H          3.45196       -1.74232       -4.45627
H          3.13979       -2.08274       -2.75684
H          2.02387       -1.07923       -3.68888
H          6.74286        1.87081        0.31515
H          7.01169        1.93057        2.04974
H          6.37767        0.46240        1.30386
H          5.16796        3.92794        0.39699
H          3.85300        3.95765        1.56317
H          5.52507        4.04791        2.11723
H          5.24190        1.96427        3.64264
H          4.38843        0.56496        2.99660
H          3.54993        2.10538        3.21266
H          6.34087        3.47477       -1.39658
H          5.98883        2.75530       -2.96933
H          4.64951        3.27185       -1.91561
