111
-148.55632117
P         -2.74623        1.84207       -0.29117
P          0.12766        0.60883        0.18237
C         -1.83917        2.23685        1.22725
C         -0.56446        1.74337        1.40239
C         -3.72716        3.29049       -0.89522
C         -3.06020        3.96587       -2.07353
C         -2.41518        3.02002        2.20708
H         -3.41958        3.38728        2.07439
C         -1.70612        3.31379        3.35912
H         -2.15509        3.92503        4.12493
C         -0.42593        2.82275        3.52986
H          0.12488        3.04909        4.42796
C          0.14481        2.03060        2.55012
H          1.13591        1.62445        2.67615
Pd        -1.22707        0.81788       -1.69415
Cl        -2.73640        0.97196       -3.34325
Cl         0.44657       -0.01569       -2.93582
C         -5.10080        2.66480       -1.19928
C         -4.09956        0.59883       -0.06079
H         -2.95506        3.27394       -2.90991
H         -3.64223        4.82073       -2.42559
H         -2.05964        4.31958       -1.81373
H         -5.12217        2.35827       -2.25425
H         -5.89772        3.41661       -1.09306
H         -3.97163       -0.13972       -0.86364
C         -5.37625        1.42834       -0.29597
C         -4.02066       -0.06603        1.29662
H         -3.80650        3.98610       -0.05022
H         -5.76309        1.76460        0.67581
H         -6.16873        0.79718       -0.72600
H         -3.07915       -0.60479        1.41891
H         -4.07983        0.67530        2.09554
H         -4.83691       -0.77751        1.44146
C         -1.25170       -3.59133        1.27338
C         -0.81381       -3.31133       -0.04827
C         -0.39614       -2.02463       -0.33763
C         -0.34491       -1.05961        0.63266
C         -0.63842       -1.35964        1.93658
C         -1.05121       -2.63026        2.30048
O         -1.96598       -4.78589        1.54721
C         -0.78535       -4.34556       -1.18496
H         -0.12245       -1.74857       -1.34172
H         -0.55836       -0.58037        2.67494
C         -1.25379       -2.91536        3.79767
C          4.66713        0.89687       -0.02119
C          3.88206        1.55448       -1.00305
C          2.50247        1.48148       -0.89917
C          1.90858        0.72351        0.07495
C          2.66325       -0.00132        0.96033
C          4.04697        0.03608        0.91971
O          6.06844        1.12154        0.03801
C          4.50391        2.34019       -2.16855
H          1.86770        2.00843       -1.59031
H          2.14979       -0.60484        1.68911
C          4.84766       -0.83535        1.90009
C         -1.91747       -4.03785       -2.17956
C          0.57030       -4.26133       -1.92093
C         -0.92995       -5.78736       -0.66860
C         -2.51452       -2.18616        4.29157
C         -1.37899       -4.41919        4.09683
C         -0.02842       -2.39884        4.58392
C         -3.36647       -4.63383        1.38489
H         -2.89139       -4.09746       -1.69749
H         -1.81225       -3.03461       -2.59162
H         -1.90940       -4.74368       -3.00959
H          1.39579       -4.39406       -1.22222
H          0.64693       -5.03582       -2.68357
H          0.70189       -3.30243       -2.41930
H         -0.17718       -6.00131        0.08930
H         -1.90807       -5.94974       -0.22204
H         -0.81331       -6.50805       -1.47763
H         -2.67104       -2.35732        5.35627
H         -2.43075       -1.11122        4.13413
H         -3.40102       -2.53120        3.76266
H         -0.52653       -4.96364        3.69214
H         -1.42284       -4.60407        5.16989
H         -2.28078       -4.83553        3.65427
H          0.88839       -2.85022        4.20562
H          0.07397       -1.31741        4.51027
H         -0.11310       -2.64601        5.64183
H         -3.73826       -3.85659        2.05072
H         -3.59532       -4.35369        0.35788
H         -3.86032       -5.57690        1.61987
C          6.44614        2.22288        0.85430
C          3.57662        2.30285       -3.40520
C          4.70436        3.80393       -1.74864
C          5.84702        1.72240       -2.59849
C          6.17566       -1.29618        1.27249
C          5.11694       -0.03853        3.18547
C          4.05626       -2.11151        2.26885
H          4.07060        2.73848       -4.27333
H          3.30383        1.27762       -3.65409
H          2.66152        2.86959       -3.24083
H          5.13403        4.38801       -2.56208
H          3.75369        4.25893       -1.47163
H          5.36972        3.88086       -0.89210
H          6.58543        1.78487       -1.80304
H          5.72049        0.67111       -2.85493
H          6.25510        2.23723       -3.46789
H          5.99465       -1.82442        0.33698
H          6.82689       -0.45239        1.05819
H          6.71416       -1.96627        1.94216
H          4.18081        0.26605        3.65303
H          5.67545       -0.63605        3.90554
H          5.69114        0.86128        2.97845
H          3.17582       -1.88138        2.86703
H          4.67186       -2.79237        2.85627
H          3.73377       -2.64077        1.37250
H          6.98979        2.95284        0.25484
H          5.56431        2.69385        1.29046
H          7.10580        1.87812        1.65041
