171
-217.83324255
P         -1.48775        0.26994       -0.36373
P          1.64590       -0.77755        0.33419
C         -0.45100        1.03004       -1.63476
C          0.95506       -1.77728       -1.00623
C          0.37268        0.21001       -2.39603
C          1.20705        0.78673       -3.37314
C          1.15153        2.15437       -3.58269
C          0.33115        2.95578       -2.81767
C         -0.45923        2.38933       -1.83738
C          0.95657       -3.13196       -0.77103
C          0.40177       -4.00039       -1.69145
C         -0.17977       -3.49806       -2.83567
C         -0.21590       -2.13585       -3.08008
C          0.38111       -1.25484       -2.15942
Cl         0.70164       -0.97644        3.42022
Cl        -2.33238       -1.55418        2.29907
C         -0.90107       -1.63813       -4.30455
C          2.13635       -0.04996       -4.18164
H          0.31496        4.02151       -2.97747
H         -1.06181        3.01929       -1.20793
H          1.39173       -3.50820        0.14310
H          0.41520       -5.06270       -1.51010
H          1.76467        2.59092       -4.35251
H         -0.62260       -4.16700       -3.55411
C         -4.34020       -2.60549       -2.39460
C         -3.57191       -3.06997       -1.33454
C         -2.70841       -2.17476       -0.71744
C         -2.62857       -0.87275       -1.14279
C         -3.39378       -0.43140       -2.19373
C         -4.26706       -1.29282       -2.84609
H         -5.01843       -3.28855       -2.87021
H         -2.09366       -2.48704        0.10717
H         -3.30475        0.59262       -2.51264
C         -3.96215        3.50856        1.68887
C         -3.33847        2.55136        2.47673
C         -2.60216        1.56453        1.83692
C         -2.48340        1.53722        0.46752
C         -3.14116        2.47538       -0.29193
C         -3.88155        3.48919        0.30220
H         -4.53280        4.27760        2.17435
H         -2.14123        0.78979        2.41755
H         -3.07143        2.42740       -1.36467
C          5.52633       -2.75959        1.58089
C          4.64979       -2.34831        2.57843
C          3.45583       -1.76045        2.18773
C          3.15343       -1.59992        0.86062
C          4.02701       -2.01786       -0.11338
C          5.23856       -2.60562        0.22999
H          6.46091       -3.21155        1.85520
H          2.74507       -1.43138        2.92347
H          3.75130       -1.88286       -1.14561
C          2.88758        3.53754       -0.29895
C          1.76685        3.29241        0.48451
C          1.37889        1.97070        0.66690
C          2.07260        0.95015        0.05739
C          3.17741        1.21486       -0.71404
C          3.61399        2.51983       -0.90256
H          3.21720        4.55205       -0.42732
H          0.53182        1.73316        1.28407
H          3.70870        0.38988       -1.15458
Pd        -0.39832       -0.74027        1.48425
C         -2.76548       -4.82957        0.31779
C         -3.71882       -4.52063       -0.85395
C         -3.39557       -5.48190       -2.01190
C         -5.16470       -4.74900       -0.37705
H         -1.72584       -4.68243        0.02748
H         -2.97740       -4.19080        1.17494
H         -2.87407       -5.86398        0.64306
H         -4.07028       -5.33135       -2.85369
H         -2.37755       -5.32780       -2.36682
H         -3.48672       -6.52015       -1.69330
H         -5.29833       -5.76589       -0.00852
H         -5.41528       -4.06120        0.43036
H         -5.87778       -4.59028       -1.18517
C         -6.16424        0.23806       -3.39398
C         -5.14990       -0.75797       -3.98325
C         -5.92034       -1.89153       -4.68746
C         -4.27797       -0.04421       -5.03466
H         -5.65676        1.07117       -2.90985
H         -6.81216        0.64387       -4.17068
H         -6.79255       -0.24783       -2.64775
H         -5.23544       -2.63849       -5.08870
H         -6.60929       -2.38526       -4.00257
H         -6.50894       -1.50111       -5.51760
H         -3.54385       -0.72895       -5.45747
H         -4.88989        0.33568       -5.85264
H         -3.74220        0.80103       -4.60487
C         -4.98091        2.37069        4.35693
C         -3.49801        2.58361        4.00410
C         -3.02545        3.94494        4.54718
C         -2.66779        1.47715        4.68647
H         -5.12977        2.37134        5.43655
H         -5.60413        3.15705        3.93247
H         -5.33478        1.41634        3.96735
H         -3.13208        3.98911        5.63092
H         -1.97615        4.11269        4.30763
H         -3.60252        4.76580        4.12353
H         -2.77311        1.52695        5.76997
H         -2.99547        0.48692        4.37089
H         -1.60828        1.58037        4.45276
C         -3.41697        5.38086       -1.26703
C         -4.52859        4.56711       -0.57917
C         -5.40392        5.52875        0.24741
C         -5.41649        3.89939       -1.64628
H         -2.80293        4.74702       -1.90592
H         -3.83826        6.17199       -1.88697
H         -2.76349        5.84238       -0.52682
H         -6.19319        4.98806        0.76952
H         -4.80848        6.06935        0.98287
H         -5.87940        6.26873       -0.39632
H         -5.92877        4.64769       -2.25082
H         -4.82796        3.27901       -2.32058
H         -6.17177        3.26776       -1.17899
C          4.96600       -1.12696        4.74404
C          4.95038       -2.51392        4.07479
C          6.31527       -3.18792        4.31224
C          3.85538       -3.38570        4.71772
H          5.71791       -0.48608        4.28404
H          4.00067       -0.63111        4.64891
H          5.19513       -1.20868        5.80635
H          6.34480       -4.18185        3.86613
H          7.12513       -2.59384        3.88919
H          6.51092       -3.29935        5.37869
H          3.81179       -4.36378        4.23914
H          4.05000       -3.53691        5.77927
H          2.87379       -2.92304        4.62209
C          5.73206       -2.80533       -2.25911
C          6.25067       -3.06267       -0.82999
C          6.50935       -4.57195       -0.67022
C          7.56659       -2.28541       -0.64284
H          4.80381       -3.34610       -2.44310
H          5.55280       -1.74353       -2.42697
H          6.45927       -3.13709       -3.00004
H          7.20990       -4.92962       -1.42464
H          6.92873       -4.80107        0.30870
H          5.58184       -5.13422       -0.77699
H          8.30034       -2.57335       -1.39552
H          7.39566       -1.21266       -0.73100
H          8.00254       -2.47488        0.33734
C          1.97637        5.10446        2.19756
C          1.03937        4.46638        1.15686
C         -0.24531        4.00792        1.86961
C          0.64916        5.51566        0.09802
H          1.48790        5.93608        2.70515
H          2.26857        4.37306        2.95088
H          2.88432        5.48363        1.72967
H         -0.02523        3.29875        2.66709
H         -0.76383        4.85672        2.31474
H         -0.93004        3.53745        1.16665
H          0.11330        6.34759        0.55477
H          1.52550        5.92271       -0.40430
H          0.00155        5.07760       -0.65998
C          5.89009        3.56053       -0.78059
C          4.88219        2.84957       -1.70270
C          4.52126        3.76908       -2.88257
C          5.54943        1.57609       -2.25924
H          5.48671        4.49844       -0.40074
H          6.13801        2.93195        0.07456
H          6.81398        3.78641       -1.31282
H          3.81684        3.27697       -3.55123
H          4.06486        4.69628       -2.53808
H          5.40817        4.02765       -3.46080
H          5.84315        0.90384       -1.45327
H          4.87675        1.04032       -2.92793
H          6.44734        1.82464       -2.82475
H         -0.30264       -1.83504       -5.19507
H          1.65979       -0.38133       -5.10499
H         -1.08710       -0.56470       -4.25074
H         -1.86497       -2.13322       -4.43226
H          2.45393       -0.93468       -3.62749
H          3.03380        0.50850       -4.45167
