111
-148.55632580
P         -2.74069        1.77678       -0.25117
P          0.16485        0.61725        0.17092
C         -1.81518        2.20684        1.24672
C         -0.52499        1.74639        1.39834
C         -3.79095        3.18010       -0.84363
C         -3.15760        3.89531       -2.01700
C         -2.38930        2.98471        2.23183
H         -3.40482        3.32652        2.11752
C         -1.66314        3.30639        3.36560
H         -2.11042        3.91376        4.13547
C         -0.36790        2.84831        3.51294
H          0.19623        3.09639        4.39692
C          0.20112        2.06123        2.52819
H          1.20436        1.68092        2.63664
Pd        -1.18792        0.88083       -1.70072
Cl        -2.74124        0.89911       -3.31785
Cl         0.42213       -0.03455       -2.96865
C         -5.13055        2.48757       -1.15498
C         -4.03409        0.47443       -0.00536
H         -2.17682        4.29832       -1.75353
H         -3.01616        3.21412       -2.85700
H         -3.78208        4.72126       -2.36532
H         -5.13136        2.18126       -2.21027
H         -5.96411        3.19913       -1.05243
H         -3.86811       -0.26970       -0.79602
C         -5.34914        1.23829       -0.25386
C         -3.92910       -0.16303        1.36310
H         -3.90658        3.86468        0.00609
H         -5.76199        1.55439        0.71397
H         -6.10425        0.56727       -0.69067
H         -4.02579        0.58830        2.14897
H         -4.71153       -0.90958        1.51776
H         -2.96390       -0.65425        1.49725
C         -1.26987       -3.55864        1.27728
C         -0.92634       -3.26489       -0.06693
C         -0.47501       -1.99117       -0.36183
C         -0.31639       -1.04954        0.61966
C         -0.53832       -1.36245        1.93467
C         -0.97170       -2.62495        2.30329
O         -1.95314       -4.76432        1.58760
C         -1.09753       -4.27637       -1.20980
H         -0.25755       -1.70256       -1.37517
H         -0.39115       -0.59457        2.67388
C         -1.14992       -2.94230        3.79573
C          4.70242        0.92425       -0.04662
C          3.91180        1.54211       -1.04955
C          2.53295        1.46115       -0.94243
C          1.94548        0.73143        0.05699
C          2.70648        0.04035        0.96379
C          4.08990        0.08755        0.92071
O          6.10086        1.16731        0.00717
C          4.52714        2.29525       -2.23967
H          1.89391        1.96064       -1.64982
H          2.19874       -0.54357        1.71216
C          4.89817       -0.74564        1.92779
C         -2.50730       -4.13131       -1.80353
C         -0.06339       -4.01550       -2.32890
C         -0.87296       -5.71662       -0.71567
C         -0.10929       -2.17194        4.64044
C         -2.55741       -2.51727        4.24140
C         -0.93265       -4.44015        4.07689
C         -3.37030       -4.64689        1.55765
H         -3.27203       -4.32871       -1.05609
H         -2.66443       -3.12033       -2.17923
H         -2.65658       -4.82565       -2.62988
H          0.94690       -3.97899       -1.92241
H         -0.09512       -4.80704       -3.07715
H         -0.25808       -3.07834       -2.84822
H         -1.61809       -6.00361        0.02210
H         -0.93402       -6.42750       -1.53930
H          0.10909       -5.81501       -0.25432
H          0.89987       -2.35536        4.27251
H         -0.28981       -1.09819        4.62440
H         -0.14785       -2.48686        5.68300
H         -2.71372       -2.73215        5.29818
H         -2.70331       -1.44796        4.09006
H         -3.32496       -3.03925        3.67471
H          0.04725       -4.75849        3.72265
H         -0.99281       -4.65144        5.14424
H         -1.68129       -5.05067        3.57851
H         -3.78053       -5.35904        0.84178
H         -3.77876       -4.87865        2.54109
H         -3.66270       -3.63561        1.27207
C          6.46350        2.29588        0.79254
C          4.71460        3.77346       -1.86720
C          5.87602        1.67586       -2.64872
C          3.60079        2.20970       -3.47460
C          4.12330       -2.02300        2.32597
C          6.23627       -1.20399        1.32003
C          5.14886        0.08922        3.19264
H          3.75992        4.22883       -1.60498
H          5.37914        3.88368       -1.01365
H          5.13938        4.33472       -2.69908
H          6.28003        2.16567       -3.53433
H          6.61320        1.77103       -1.85534
H          5.75916        0.61564       -2.87071
H          4.09116        2.62163       -4.35623
H          3.33740        1.17456       -3.69043
H          2.68048        2.77303       -3.32868
H          4.74517       -2.67882        2.93489
H          3.23581       -1.79031        2.91252
H          3.81427       -2.58052        1.44213
H          6.87742       -0.35717        1.08817
H          6.77965       -1.84937        2.00975
H          6.06838       -1.75825        0.39722
H          4.20589        0.39138        3.64787
H          5.70988        0.99219        2.96405
H          5.71317       -0.48009        3.93083
H          7.00538        3.01195        0.17497
H          5.57459        2.77234        1.20790
H          7.11991        1.98113        1.60363
