171
-217.83710637
P         -1.66864        0.72407        0.23687
P          1.45763       -0.29672       -0.26530
C         -0.86209        1.79535       -0.97505
C          0.57335       -0.97301       -1.68341
C         -0.22695        1.33748       -2.12358
C          0.45383        2.26405       -2.93580
C          0.45311        3.60368       -2.58574
C         -0.18388        4.04024       -1.44430
C         -0.83311        3.12765       -0.63555
C          0.66670       -2.30617       -2.00099
C         -0.01632       -2.80925       -3.09084
C         -0.80860       -1.97267       -3.84896
C         -0.93094       -0.62850       -3.53742
C         -0.20171       -0.11130       -2.44937
Cl         2.11517        1.13543        2.66313
Cl        -0.93580        0.51886        3.49375
C         -1.80991        0.24792       -4.35955
C          1.19473        1.83690       -4.15465
H         -0.16761        5.08442       -1.17792
H         -1.31491        3.45083        0.27552
H          1.26842       -2.95905       -1.39250
H          0.06547       -3.85293       -3.34657
H          0.97227        4.30662       -3.21530
H         -1.33998       -2.36253       -4.70035
C         -2.98800       -3.44569       -0.94627
C         -1.92972       -3.32653       -0.05448
C         -1.52214       -2.04658        0.30189
C         -2.13962       -0.94380       -0.24230
C         -3.18585       -1.08310       -1.12085
C         -3.63791       -2.34458       -1.48705
H         -3.32856       -4.42832       -1.21602
H         -0.71668       -1.90381        0.99923
H         -3.65551       -0.19599       -1.50841
C         -5.47247        2.84986        1.48687
C         -4.69912        2.25179        2.47446
C         -3.53040        1.61203        2.08482
C         -3.16042        1.57435        0.76517
C         -3.93678        2.17001       -0.19837
C         -5.11207        2.82550        0.14454
H         -6.37630        3.35009        1.77979
H         -2.88308        1.15205        2.80820
H         -3.61498        2.13396       -1.22622
C          3.80676       -3.63559        1.77013
C          3.99131       -3.38228        0.41691
C          3.25901       -2.35181       -0.15704
C          2.35477       -1.62626        0.57972
C          2.18627       -1.90056        1.91686
C          2.91528       -2.90272        2.54190
H          4.37910       -4.41000        2.24507
H          3.39798       -2.11659       -1.19775
H          1.49168       -1.31828        2.49102
C          4.50467        2.67382       -1.81826
C          3.72553        3.03293       -0.72587
C          2.81014        2.10472       -0.24900
C          2.67227        0.88296       -0.85718
C          3.43314        0.55429       -1.95246
C          4.37471        1.44542       -2.45399
H          5.24326        3.36755       -2.17499
H          2.20361        2.32514        0.61020
H          3.27103       -0.39688       -2.42815
Pd         0.23249        0.57854        1.57269
C         -2.33324       -5.30335        1.42508
C         -1.29479       -4.59298        0.53876
C         -0.06106       -4.26357        1.39642
C         -0.84786       -5.53645       -0.59430
H         -1.91313       -6.20271        1.87507
H         -2.66561       -4.64669        2.22892
H         -3.20981       -5.59517        0.84757
H          0.69353       -3.74558        0.80707
H         -0.32742       -3.63825        2.24784
H          0.39318       -5.17536        1.78301
H         -1.68803       -5.84493       -1.21467
H         -0.11691       -5.04768       -1.23662
H         -0.38669       -6.43740       -0.18995
C         -5.91524       -3.37186       -1.70820
C         -4.83300       -2.54644       -2.42946
C         -4.36801       -3.29254       -3.69219
C         -5.45478       -1.20146       -2.85277
H         -6.79136       -3.50510       -2.34263
H         -5.54726       -4.36096       -1.43847
H         -6.23374       -2.87195       -0.79360
H         -3.93576       -4.26103       -3.44314
H         -5.20113       -3.46266       -4.37393
H         -3.61265       -2.71516       -4.22292
H         -5.80843       -0.64640       -1.98428
H         -4.73349       -0.58449       -3.38741
H         -6.30689       -1.35916       -3.51377
C         -6.52207        1.64956        4.08850
C         -5.14333        2.31936        3.94280
C         -5.23155        3.79302        4.37997
C         -4.14878        1.59444        4.87129
H         -7.27608        2.15975        3.49028
H         -6.48131        0.61094        3.76078
H         -6.85481        1.66345        5.12624
H         -5.96304        4.33971        3.78605
H         -5.52545        3.87257        5.42643
H         -4.26746        4.28724        4.26146
H         -4.47816        1.64755        5.90878
H         -4.06106        0.54098        4.60656
H         -3.15884        2.04674        4.81643
C         -5.09019        4.58373       -1.63979
C         -5.94398        3.49973       -0.95550
C         -7.21347        4.16194       -0.38669
C         -6.36751        2.44351       -1.99312
H         -5.65759        5.09448       -2.41757
H         -4.76223        5.32917       -0.91558
H         -4.20191        4.15470       -2.10234
H         -7.85485        3.42698        0.09940
H         -6.96143        4.93568        0.33827
H         -7.79344        4.63161       -1.18109
H         -5.50075        1.98496       -2.46761
H         -6.95013        1.65280       -1.52093
H         -6.97810        2.88997       -2.77773
C          6.04689       -3.23140       -1.00842
C          4.96791       -4.18162       -0.45652
C          4.19326       -4.82178       -1.62443
C          5.66140       -5.30214        0.34149
H          5.60608       -2.44532       -1.62002
H          6.59203       -2.75392       -0.19448
H          6.76464       -3.77136       -1.62568
H          3.73452       -4.06460       -2.25933
H          4.85465       -5.42219       -2.24876
H          3.40031       -5.46966       -1.25093
H          6.24631       -4.89335        1.16520
H          4.93200       -6.00245        0.74822
H          6.34142       -5.86685       -0.29624
C          4.15609       -2.84257        4.71286
C          2.80401       -3.16559        4.05152
C          2.44537       -4.64199        4.30082
C          1.71940       -2.28506        4.70547
H          4.11181       -2.99963        5.79039
H          4.95053       -3.47295        4.31486
H          4.43190       -1.80354        4.53354
H          3.19869       -5.31100        3.88700
H          2.36926       -4.84805        5.36833
H          1.48828       -4.88992        3.84425
H          1.95253       -1.22615        4.59560
H          0.74130       -2.47015        4.26240
H          1.64282       -2.49421        5.77221
C          5.33084        4.53012        0.48198
C          3.90033        4.41087       -0.07321
C          2.90544        4.61926        1.08623
C          3.65543        5.50800       -1.12543
H          6.07189        4.43736       -0.31112
H          5.48148        5.49326        0.96925
H          5.52463        3.74669        1.21442
H          1.87578        4.53855        0.73852
H          3.06181        3.88384        1.87510
H          3.02815        5.60752        1.52886
H          4.36547        5.43493       -1.94825
H          2.65179        5.42427       -1.54108
H          3.75623        6.49993       -0.68536
C          5.33375        2.21345       -4.65913
C          5.30171        1.07467       -3.62111
C          4.82955       -0.20916       -4.33283
C          6.71882        0.84165       -3.06868
H          4.33438        2.42147       -5.03899
H          5.73046        3.13388       -4.23340
H          5.96432        1.94662       -5.50714
H          4.86794       -1.06922       -3.66511
H          3.80841       -0.10094       -4.69781
H          5.46617       -0.43327       -5.18863
H          7.10249        1.73988       -2.58559
H          6.71726        0.04030       -2.32995
H          7.40948        0.56630       -3.86552
H         -2.68112       -0.29912       -4.72248
H          2.18757        2.28716       -4.17625
H         -1.27398        0.63429       -5.22734
H         -2.17305        1.09777       -3.77938
H          0.66801        2.14329       -5.05948
H          1.32474        0.75461       -4.18769
