111
-148.55090840
P         -2.66736        1.93293       -0.03222
P          0.12301        0.50760        0.45347
C         -1.88183        2.00245        1.60600
C         -0.64691        1.42202        1.79888
C         -3.73044        3.42875       -0.29752
C         -3.39077        4.14393       -1.58610
C         -2.51812        2.62206        2.66339
H         -3.49373        3.05603        2.51942
C         -1.90896        2.66758        3.90565
H         -2.40593        3.15263        4.72990
C         -0.66799        2.08968        4.09195
H         -0.19535        2.12231        5.05980
C         -0.03711        1.45869        3.03517
H          0.92316        0.98462        3.16656
Pd        -0.98271        1.21018       -1.45227
Cl        -2.28246        1.75089       -3.19278
Cl         0.72144        0.39986       -2.67559
C         -5.15908        2.84602       -0.26532
C         -3.93740        0.59313       -0.16837
H         -3.98410        5.05295       -1.70980
H         -2.33451        4.42022       -1.62158
H         -3.59330        3.50303       -2.44494
H         -5.81176        3.43865       -0.92286
H         -5.58383        2.95024        0.74392
H         -3.56968       -0.12028       -0.91895
C         -5.18164        1.34753       -0.67954
C         -4.13894       -0.09728        1.16293
H         -3.55456        4.09599        0.55667
H         -6.09044        0.85472       -0.30425
H         -5.23588        1.27550       -1.77587
H         -3.20709       -0.53614        1.52511
H         -4.48170        0.61344        1.91726
H         -4.88321       -0.89429        1.09408
C         -1.37001       -3.79527        0.54791
C         -0.81237       -3.26194       -0.64174
C         -0.37754       -1.94940       -0.62599
C         -0.40920       -1.20278        0.52143
C         -0.83999       -1.74986        1.70125
C         -1.29424       -3.05709        1.75721
O         -2.04037       -5.04699        0.51960
C         -0.71179       -4.06025       -1.95017
H         -0.01790       -1.47746       -1.52335
H         -0.83365       -1.13117        2.58121
C         -1.72883       -3.64200        3.11019
C          4.65132        0.87979        0.16568
C          3.88421        1.99164        0.60006
C          2.50689        1.85440        0.66807
C          1.90489        0.65184        0.40528
C          2.65162       -0.45247        0.08908
C          4.03093       -0.38388       -0.00453
O          6.02941        1.04176       -0.13722
C          4.52051        3.34230        0.96431
H          1.87973        2.69252        0.91899
H          2.13553       -1.37614       -0.10488
C          4.81625       -1.66296       -0.33327
C          0.51169       -3.59902       -2.77581
C         -0.52424       -5.56256       -1.67282
C         -1.98149       -3.82669       -2.78292
C         -3.22184       -3.35758        3.33441
C         -1.46339       -5.15740        3.16851
C         -0.92700       -2.99951        4.26482
C         -3.42774       -4.95126        0.22182
H          1.41970       -3.63133       -2.17456
H          0.66024       -4.24484       -3.64082
H          0.38671       -2.58522       -3.15295
H         -1.38559       -5.98227       -1.15944
H         -0.39024       -6.11857       -2.60038
H          0.35173       -5.73034       -1.04706
H         -2.86981       -4.15341       -2.24747
H         -2.10284       -2.76776       -3.01049
H         -1.93626       -4.37156       -3.72545
H         -3.55919       -3.77081        4.28461
H         -3.41265       -2.28494        3.34795
H         -3.82941       -3.79219        2.54433
H         -1.70765       -5.56075        4.15091
H         -2.06136       -5.69322        2.43551
H         -0.41466       -5.37131        2.96502
H          0.14448       -3.07362        4.08064
H         -1.18104       -1.94876        4.39669
H         -1.13980       -3.50041        5.20898
H         -3.71715       -3.90821        0.08679
H         -3.64662       -5.50941       -0.68830
H         -4.00686       -5.38685        1.03593
C          6.28435        1.40052       -1.48958
C          5.92500        3.15044        1.56520
C          4.59796        4.22347       -0.29156
C          3.67265        4.07420        2.02964
C          4.10002       -2.90577        0.24418
C          4.91214       -1.81754       -1.85881
C          6.22383       -1.62903        0.28890
H          5.88506        2.48987        2.43066
H          6.60937        2.71248        0.84292
H          6.34826        4.10257        1.88423
H          5.20740        3.75830       -1.06253
H          3.60476        4.38753       -0.70885
H          5.03230        5.19575       -0.06035
H          4.18455        4.96875        2.38371
H          2.71111        4.39368        1.63074
H          3.49077        3.43019        2.88970
H          3.15553       -3.10043       -0.26138
H          4.71524       -3.79722        0.12414
H          3.89949       -2.77818        1.30762
H          5.42709       -0.97212       -2.30884
H          5.45383       -2.72425       -2.12678
H          3.91848       -1.87327       -2.30297
H          6.75480       -2.56333        0.10826
H          6.16339       -1.47587        1.36587
H          6.82372       -0.82443       -0.12853
H          5.34710        1.50575       -2.03759
H          6.83210        2.34226       -1.52067
H          6.89776        0.63421       -1.96310
