64
-97.21765578
Cl        -1.56146       -1.06516       -2.68751
Cl         1.54910       -1.43519       -2.91057
P          1.92343       -0.65089        0.25570
C          2.11710       -2.32317        1.02900
C          3.70889       -0.26708       -0.09130
P         -1.26070       -0.12162        0.46703
C          1.29295        0.59049        1.44072
C         -0.13049        0.84163        1.53900
C         -0.31936        1.95908        2.45265
C          0.99026        2.39012        2.90987
C          1.99072        1.52992        2.30414
H         -1.27751        2.36617        2.78131
H          1.18618        3.19648        3.62000
Pd         0.14371       -0.93711       -1.23562
H          3.07154        1.59092        2.44422
C         -5.00756        2.12296       -0.86404
C         -4.04664        2.78665       -0.12817
C         -2.90848        2.11715        0.28081
C         -2.72733        0.79291       -0.04963
C         -3.68940        0.12891       -0.77637
C         -4.83119        0.79278       -1.18799
H         -5.89533        2.64299       -1.18531
H         -4.18203        3.82500        0.12678
H         -2.15464        2.62975        0.85105
H         -3.54012       -0.90884       -1.02749
H         -5.57922        0.27182       -1.76277
C         -2.61482       -3.93806        2.52325
C         -2.38162       -2.79936        3.27004
C         -1.97619       -1.63485        2.64254
C         -1.80505       -1.62215        1.27776
C         -2.04318       -2.75067        0.52778
C         -2.44844       -3.91586        1.15208
H         -2.93038       -4.84566        3.01153
H         -2.51385       -2.81709        4.33939
H         -1.78533       -0.73702        3.20894
H         -1.91913       -2.70919       -0.54277
H         -2.63501       -4.80274        0.56906
C          4.05126       -0.35899       -1.56242
H          3.89401        0.74827        0.28310
C          4.45105       -1.31702        0.75874
H          4.65405       -0.91255        1.76123
C          3.62204       -2.62256        0.88779
H          5.43603       -1.52419        0.31540
C          1.64132       -2.29592        2.46533
H          1.51406       -3.02337        0.43473
H          3.96245       -3.21501        1.74921
H          3.79784       -3.25477        0.00536
H          2.21922       -1.57492        3.04695
H          0.59225       -2.00236        2.53106
H          1.74885       -3.27249        2.94325
H          5.11160       -0.16581       -1.73893
H          3.83064       -1.35742       -1.94310
H          3.47935        0.35209       -2.16000
Fe         0.84613        2.45237        0.84747
C          2.21665        3.18103       -0.50309
C          1.40008        4.25622        0.03381
C          0.01055        3.96295       -0.27431
C         -0.03130        2.70326       -0.99478
C          1.32801        2.22014       -1.12830
H          3.30664        3.12055       -0.46538
H          1.76886        5.14481        0.55121
H         -0.84697        4.59666       -0.03711
H         -0.91886        2.22293       -1.41125
H          1.62365        1.32466       -1.67704
