87
-129.18506767
P         -1.55592       -0.31039       -0.37016
P          1.71549        0.39613        0.09399
C         -1.19298        0.92720       -1.62084
C          1.57285       -0.71460       -1.32776
C         -0.12232        0.73359       -2.48474
C          0.14895        1.71428       -3.45978
C         -0.66351        2.83364       -3.53499
C         -1.72242        3.00498       -2.66839
C         -1.98451        2.04589       -1.71023
C          2.31310       -1.87090       -1.25115
C          2.20443       -2.84124       -2.22763
C          1.33302       -2.65470       -3.27780
C          0.56817       -1.50526       -3.37351
C          0.69756       -0.50377       -2.39184
Cl         1.11642        0.17663        3.24582
Cl        -1.53612       -1.67338        2.48253
H         -2.34146        3.88451       -2.73616
H         -2.81422        2.16757       -1.03396
H          2.97692       -2.02095       -0.41562
H          2.78778       -3.74491       -2.16036
H         -0.45333        3.58092       -4.28126
H          1.23135       -3.41424       -4.03439
C         -2.25582       -4.34102       -2.33976
C         -1.33452       -4.24299       -1.30597
C         -1.15547       -3.00913       -0.69277
C         -1.85820       -1.90805       -1.12300
C         -2.76163       -2.00981       -2.15461
C         -2.96616       -3.23456       -2.76283
H         -2.41184       -5.29523       -2.81343
C         -0.57424       -5.43357       -0.83861
H         -0.45585       -2.91158        0.12016
H         -3.29250       -1.13038       -2.48430
H         -3.67421       -3.32305       -3.57041
C         -5.12925        1.03258        2.11831
C         -5.20881       -0.13248        1.38106
C         -4.12996       -0.54300        0.62107
C         -2.98366        0.21576        0.59923
C         -2.90099        1.37424        1.33670
C         -3.97170        1.79863        2.11307
H         -5.96934        1.35500        2.70952
H         -6.10959       -0.72378        1.40069
H         -4.17400       -1.45629        0.05087
H         -1.99799        1.95953        1.30886
C         -3.87842        3.06228        2.89361
C          5.69122       -0.24743        2.21724
C          5.51086        0.85598        1.40687
C          4.30153        1.05063        0.76617
C          3.28216        0.14398        0.94203
C          3.46106       -0.95718        1.74733
C          4.67180       -1.17261        2.39433
H          6.62884       -0.39627        2.72519
H          6.31001        1.56721        1.27662
H          4.14517        1.91016        0.13500
H          2.64767       -1.64861        1.89420
C          4.84527       -2.34396        3.29568
C          0.90770        4.80248       -0.66279
C          1.78295        4.12107       -1.48604
C          2.04730        2.78368       -1.25647
C          1.43189        2.14199       -0.20803
C          0.58793        2.82707        0.63574
C          0.30568        4.16943        0.41603
H          0.68638        5.83910       -0.85165
H          2.24878        4.62678       -2.31586
H          2.71283        2.23096       -1.90023
H          0.16841        2.32284        1.48940
C         -0.65581        4.89289        1.29140
Pd        -0.04279       -0.38470        1.41342
C          1.28847        1.57406       -4.40822
C         -0.37993       -1.36061       -4.51337
H          1.98054        0.79379       -4.08954
H          0.93297        1.32161       -5.40796
H          1.85267        2.50515       -4.47864
H          0.15062       -1.10287       -5.43071
H         -0.92062       -2.29173       -4.68877
H         -1.12110       -0.58408       -4.32159
H         -1.09498       -5.92726       -0.01703
H         -0.44481       -6.15979       -1.64232
H          0.41860       -5.14989       -0.48602
H         -2.89548        3.16243        3.35642
H         -4.03817        3.92845        2.24989
H         -4.62345        3.09219        3.68984
H          4.45670       -2.12500        4.29120
H          4.31353       -3.21576        2.91163
H          5.89737       -2.61435        3.39576
H         -0.63922        4.49396        2.30667
H         -0.41481        5.95524        1.34860
H         -1.67299        4.79766        0.90860
