59
-75.79830880
Cl         1.56432        0.35610        2.34865
P          1.49191        0.05804       -0.86718
P         -1.67859       -0.13078       -0.79175
C          0.51053       -0.03404       -2.42883
H          0.23268        0.98338       -2.71557
H          1.14398       -0.43869       -3.22431
C         -0.71445       -0.87122       -2.18418
H         -0.43990       -1.89192       -1.90556
H         -1.36027       -0.93035       -3.06574
C          2.75317       -1.29053       -0.76698
H          2.88954       -1.66803       -1.78764
C          2.58705        1.54166       -0.70091
H          2.38109        1.96140        0.29145
C         -3.21972       -1.07685       -0.40859
H         -3.40610       -0.93490        0.66291
C         -2.43844        1.44881       -1.39601
H         -2.12376        1.52327       -2.44535
C          4.01453       -0.54680       -0.29363
H          4.06035       -0.59342        0.80327
H          4.92066       -1.05976       -0.65058
C          4.00401        0.94004       -0.74587
H          4.38590        1.01044       -1.77362
H          4.69420        1.53943       -0.13290
C         -4.28182       -0.32912       -1.23361
H         -4.31519       -0.76378       -2.24247
H         -5.28352       -0.49339       -0.80730
C         -3.95726        1.18795       -1.32804
H         -4.37811        1.70020       -0.45488
H         -4.46095        1.64028       -2.19550
C          2.29735       -2.41418        0.15563
H          1.30873       -2.76678       -0.16881
H          2.14156       -2.00457        1.16244
C          2.31149        2.58278       -1.77891
H          2.48846        2.12845       -2.76280
H          1.24437        2.84192       -1.76714
C         -3.09502       -2.56257       -0.72121
H         -4.08721       -3.02946       -0.64806
H         -2.79754       -2.68223       -1.77096
C         -1.93907        2.66177       -0.61120
H         -0.84387        2.69827       -0.69054
H         -2.29557        3.57910       -1.10034
C          3.27623       -3.57741        0.20786
H          4.25357       -3.25718        0.57326
H          3.42855       -4.00884       -0.78327
H          2.92709       -4.37714        0.86503
C          3.15215        3.84079       -1.61843
H          4.21877        3.61556       -1.67167
H          2.97161        4.31358       -0.65116
H          2.93474        4.58083       -2.39204
C         -2.11422       -3.27757        0.19607
H         -2.42430       -3.20075        1.23991
H         -1.11726       -2.84048        0.13030
H         -2.02444       -4.33929       -0.04436
C         -2.33802        2.68093        0.85862
H         -3.41178        2.82064        0.98981
H         -2.07570        1.74734        1.35498
H         -1.84400        3.48852        1.40390
Cl        -1.66258       -0.38000        2.37270
Pd        -0.04147       -0.08140        0.84904
