87
-129.18498158
P         -1.58847       -0.32328       -0.36946
P          1.73073        0.41101        0.08844
C         -1.21823        0.92500       -1.60647
C          1.57586       -0.70144       -1.32906
C         -0.13797        0.74627       -2.46224
C          0.13829        1.74014       -3.42215
C         -0.67602        2.85859       -3.48960
C         -1.74334        3.01556       -2.63073
C         -2.01198        2.04267       -1.68836
C          2.32071       -1.85540       -1.26464
C          2.20370       -2.82235       -2.24351
C          1.32114       -2.63362       -3.28408
C          0.55188       -1.48608       -3.36699
C          0.68673       -0.48943       -2.38135
Cl         1.08545        0.21063        3.23762
Cl        -1.43990       -1.69201        2.52175
H         -2.36410        3.89433       -2.69237
H         -2.84817        2.15306       -1.01804
H          2.99472       -2.00588       -0.43734
H          2.79046       -3.72451       -2.18634
H         -0.46137        3.61601       -4.22428
H          1.21521       -3.38943       -4.04380
C         -2.22133       -4.36676       -2.33258
C         -1.30635       -4.25217       -1.29486
C         -1.14874       -3.01405       -0.68433
C         -1.86532       -1.92475       -1.12162
C         -2.76336       -2.04288       -2.15608
C         -2.94671       -3.27235       -2.76160
H         -2.36090       -5.32452       -2.80421
C         -0.53088       -5.43004       -0.82034
H         -0.45678       -2.90383        0.13357
H         -3.30676       -1.17267       -2.48973
H         -3.65026       -3.37395       -3.57158
C         -5.15225        0.96884        2.15679
C         -5.22255       -0.19833        1.42176
C         -4.14624       -0.59372        0.65007
C         -3.01195        0.18238        0.61479
C         -2.93803        1.34264        1.35057
C         -4.00640        1.75213        2.13803
H         -5.99057        1.27951        2.75674
H         -6.11424       -0.80282        1.45187
H         -4.18281       -1.50778        0.08044
H         -2.04346        1.94062        1.31420
C         -3.92302        3.01871        2.91503
C          5.66331       -0.31577        2.26270
C          5.51571        0.79510        1.45584
C          4.31773        1.01938        0.80363
C          3.27886        0.13157        0.96022
C          3.42482       -0.97671        1.76232
C          4.61780       -1.21235        2.43475
H          6.59606       -0.49379        2.77023
H          6.33279        1.48732        1.33471
H          4.18715        1.88468        0.17457
H          2.59961       -1.65887        1.88488
C          4.77135       -2.41745        3.29439
C          0.98968        4.81616       -0.73999
C          1.89150        4.11955       -1.52087
C          2.13603        2.78256       -1.26759
C          1.47620        2.15700       -0.23648
C          0.60281        2.85670        0.56425
C          0.33939        4.19847        0.31957
H          0.78376        5.85218       -0.94846
H          2.39365        4.61315       -2.33668
H          2.82044        2.21779       -1.88044
H          0.13840        2.36354        1.40075
C         -0.65511        4.93453        1.14630
Pd        -0.05319       -0.34052        1.38427
C          1.28301        1.61201       -4.36607
C         -0.40271       -1.33485       -4.50052
H          1.98044        0.83711       -4.04595
H          0.93390        1.35829       -5.36773
H          1.83932        2.54811       -4.43236
H          0.12110       -1.05670       -5.41578
H         -0.93359       -2.26916       -4.68839
H         -1.15150       -0.56959       -4.29362
H          0.45450       -5.13022       -0.46024
H         -1.05009       -5.93130       -0.00238
H         -0.38358       -6.15478       -1.62231
H         -4.10505        3.88079        2.27171
H         -4.65769        3.03833        3.72114
H         -2.93557        3.13574        3.36412
H          5.55255       -2.27315        4.04199
H          3.84365       -2.63919        3.82407
H          5.03458       -3.29022        2.69519
H         -1.66037        4.81239        0.74019
H         -0.66037        4.56672        2.17341
H         -0.43075        6.00161        1.17714
