64
-97.21661946
Cl        -1.64710       -1.23851       -2.50010
Cl         1.56096       -1.11334       -2.97658
P          1.94983       -0.68563        0.26283
C          2.11356       -2.36145        1.03222
C          3.74312       -0.30871       -0.03981
P         -1.29658       -0.13792        0.43661
C          1.27733        0.55521        1.42599
C         -0.14596        0.82530        1.48968
C         -0.35180        1.94608        2.39339
C          0.95362        2.39007        2.84822
C          1.96154        1.51443        2.27740
H         -1.31459        2.36277        2.69444
H          1.14157        3.20938        3.54583
Pd         0.17486       -0.90374       -1.23443
H          3.04024        1.57919        2.43189
C         -5.06031        2.11152       -0.83389
C         -4.04879        2.79518       -0.18974
C         -2.90456        2.12483        0.20063
C         -2.76845        0.77925       -0.05717
C         -3.77988        0.09614       -0.69354
C         -4.92813        0.76071       -1.08559
H         -5.95295        2.63216       -1.14033
H         -4.14955        3.84976        0.00826
H         -2.11225        2.65264        0.70082
H         -3.66386       -0.95767       -0.88941
H         -5.71543        0.22428       -1.58931
C         -2.59123       -3.96040        2.51880
C         -2.37720       -2.81277        3.25772
C         -1.99137       -1.64582        2.62230
C         -1.82088       -1.63959        1.25733
C         -2.04002       -2.77715        0.51595
C         -2.42547       -3.94482        1.14749
H         -2.89141       -4.86981        3.01338
H         -2.50875       -2.82550        4.32722
H         -1.81441       -0.74134        3.18262
H         -1.91890       -2.73841       -0.55474
H         -2.59761       -4.83837        0.57026
C          4.10832       -0.37875       -1.50630
H          3.92927        0.69884        0.35443
C          4.46167       -1.37810        0.80659
H          4.65601       -0.98853        1.81667
C          3.61692       -2.67608        0.90872
H          5.45012       -1.59084        0.37376
C          1.62007       -2.33160        2.46245
H          1.51006       -3.05289        0.42824
H          3.93854       -3.28210        1.76798
H          3.79827       -3.29994        0.02144
H          2.19863       -1.61818        3.05274
H          0.57365       -2.02612        2.51542
H          1.71037       -3.31026        2.93972
H          5.17540       -0.20541       -1.66178
H          3.87061       -1.36355       -1.91189
H          3.56178        0.35809       -2.09672
Fe         0.86246        2.44509        0.79336
C          2.25349        3.14458       -0.48415
C          1.45056        4.23259        0.05177
C          0.06223        4.00640       -0.31461
C          0.00472        2.73142       -1.00855
C          1.35396        2.21604       -1.14179
H          3.34106        3.05629       -0.42509
H          1.83546        5.10795        0.58055
H         -0.78186        4.66209       -0.09047
H         -0.88675        2.28001       -1.44974
H          1.63383        1.32013       -1.69977
