111
-148.55860038
P         -2.58501        1.99422        0.98857
P          0.13399        0.45640        0.48820
C         -1.47840        1.64963        2.38286
C         -0.27450        1.01989        2.15124
C         -3.45344        3.61810        1.16891
C         -2.87696        4.65643        0.23128
C         -1.83558        1.99902        3.66944
H         -2.78699        2.47226        3.84877
C         -0.97773        1.72415        4.72062
H         -1.25554        1.99679        5.72567
C          0.23165        1.09873        4.48434
H          0.89791        0.88274        5.30325
C          0.58263        0.74097        3.19497
H          1.51502        0.23684        2.99387
Pd        -1.32812        1.59554       -0.89873
Cl        -3.01403        2.34561       -2.17319
Cl         0.01705        1.13557       -2.63910
C         -4.92431        3.25128        0.89555
C         -4.03579        0.84987        0.89476
H         -2.97460        4.33722       -0.80739
H         -3.39213        5.61468        0.33114
H         -1.81411        4.81993        0.42504
H         -5.13669        3.41928       -0.16934
H         -5.59731        3.92968        1.44170
H         -4.10326        0.53044       -0.15397
C         -5.22076        1.76635        1.25230
C         -3.86014       -0.34277        1.80939
H         -3.32473        3.92802        2.21366
H         -5.42103        1.68136        2.32928
H         -6.13794        1.41808        0.75337
H         -4.72877       -1.00440        1.77510
H         -2.98006       -0.92632        1.53176
H         -3.72696       -0.02162        2.84412
C         -1.18066       -3.86605       -0.09353
C         -0.98928       -3.36401        1.22144
C         -0.57881       -2.04953        1.36781
C         -0.43074       -1.23012        0.28006
C         -0.72296       -1.67802       -0.98013
C         -1.15081       -2.97521       -1.19935
O         -1.31525       -5.26133       -0.31117
C         -1.20992       -4.19351        2.49734
H         -0.35636       -1.65273        2.34318
H         -0.59735       -0.99512       -1.80306
C         -1.58713       -3.35185       -2.62467
C          4.55859        0.64778       -0.55657
C          3.97021       -0.58230       -0.16679
C          2.61907       -0.59343        0.13402
C          1.88079        0.56105        0.12596
C          2.46618        1.76892       -0.14634
C          3.81429        1.85185       -0.45654
O          5.87833        0.66806       -1.08116
C          4.75516       -1.90201       -0.10562
H          2.11558       -1.51651        0.36409
H          1.84677        2.64910       -0.12993
C          4.43631        3.23211       -0.72029
C         -2.02996       -3.36856        3.51417
C         -2.00095       -5.48512        2.22706
C          0.15320       -4.54495        3.11628
C         -2.51865       -2.25025       -3.17947
C         -0.34720       -3.46337       -3.52705
C         -2.37574       -4.67196       -2.66483
C         -0.06958       -5.90532       -0.52182
H         -2.24982       -3.95793        4.40397
H         -1.49629       -2.47738        3.84015
H         -2.97781       -3.05431        3.07854
H         -2.22897       -6.00788        3.15566
H         -2.94036       -5.26177        1.72256
H         -1.43745       -6.16776        1.59547
H          0.02797       -5.11705        4.03521
H          0.75489       -5.13877        2.43076
H          0.71614       -3.64333        3.35615
H         -2.90950       -2.52793       -4.15789
H         -3.36500       -2.09020       -2.51209
H         -1.99932       -1.30054       -3.29628
H          0.20883       -2.52644       -3.54192
H          0.32603       -4.24340       -3.17673
H         -0.63182       -3.70065       -4.55175
H         -3.22279       -4.63423       -1.98073
H         -2.75558       -4.87242       -3.66635
H         -1.75084       -5.51348       -2.37527
H         -0.23895       -6.96833       -0.69451
H          0.43244       -5.47533       -1.38697
H          0.56867       -5.77976        0.35134
C          5.94302        0.49766       -2.49163
C          6.22406       -1.65686        0.28366
C          4.15634       -2.84399        0.96485
C          4.67618       -2.60284       -1.47055
C          4.29879        3.57263       -2.21205
C          3.71358        4.32295        0.10240
C          5.91743        3.26454       -0.30135
H          6.76468       -2.59748        0.38583
H          6.73947       -1.06128       -0.46555
H          6.28564       -1.12526        1.23266
H          4.78663       -3.72217        1.10325
H          4.07412       -2.33652        1.92569
H          3.16815       -3.20305        0.68057
H          3.63958       -2.80454       -1.74011
H          5.10776       -1.98715       -2.25593
H          5.21163       -3.55176       -1.45396
H          4.81724        2.84540       -2.83204
H          3.25086        3.57452       -2.51115
H          4.71416        4.55654       -2.42829
H          4.23142        5.27807        0.01739
H          2.69382        4.48113       -0.24525
H          3.67952        4.05362        1.15775
H          6.51380        2.57716       -0.89591
H          6.02631        2.98178        0.74515
H          6.33912        4.26118       -0.42926
H          6.53355       -0.38759       -2.72690
H          4.94060        0.38794       -2.90748
H          6.43140        1.36142       -2.94243
