59
-75.80025671
Cl         1.27292        0.67403        2.45771
P          1.48686       -0.06424       -0.75788
P         -1.70566       -0.19550       -0.85199
C          0.55543        0.38469       -2.28965
H          0.31534        1.44937       -2.24443
H          1.21353        0.23557       -3.15127
C         -0.69613       -0.44242       -2.37932
H         -0.45029       -1.50332       -2.46308
H         -1.30698       -0.18215       -3.24925
C          2.38289       -1.65724       -1.06314
H          1.85029       -2.13373       -1.89681
C          2.96758        1.01684       -0.53233
H          3.26626        0.92715        0.51892
C         -2.93407       -1.54734       -0.53907
H         -2.95185       -1.68662        0.54906
C         -2.87075        1.23527       -1.07072
H         -2.77745        1.54340       -2.11910
C          3.79809       -1.21435       -1.50786
H          4.54353       -1.71206       -0.87414
H          4.01005       -1.58212       -2.52296
C          4.00038        0.33062       -1.44352
H          3.90489        0.75733       -2.45239
H          5.02291        0.57781       -1.11899
C         -4.25561       -0.92279       -1.01542
H         -4.39239       -1.15279       -2.08130
H         -5.10833       -1.39082       -0.49982
C         -4.25723        0.61490       -0.81009
H         -4.55411        0.84040        0.22342
H         -5.01754        1.09487       -1.44465
C          2.37101       -2.57021        0.16310
H          2.83799       -3.52910       -0.10224
H          1.33205       -2.81562        0.41841
C          2.68265        2.47478       -0.86840
H          2.36035        2.54431       -1.91534
H          1.82445        2.81734       -0.27498
C         -2.58547       -2.86323       -1.22403
H         -3.44169       -3.54735       -1.14330
H         -2.46308       -2.68319       -2.29984
C         -2.56094        2.41143       -0.14892
H         -3.40166        3.11845       -0.18139
H         -2.53076        2.04893        0.88669
C          3.06067       -1.98903        1.38856
H          4.11762       -1.78966        1.20772
H          3.00173       -2.66180        2.24725
H          2.60506       -1.04593        1.68724
C          3.87763        3.38424       -0.62463
H          3.65181        4.42821       -0.85381
H          4.73129        3.09166       -1.23857
H          4.19983        3.33885        0.41739
C         -1.34222       -3.51790       -0.64562
H         -0.47848       -2.85925       -0.73031
H         -1.09432       -4.45324       -1.15252
H         -1.47028       -3.74101        0.41536
C         -1.26925        3.13393       -0.49269
H         -1.28422        3.50685       -1.51851
H         -1.08887        3.98669        0.16580
H         -0.41065        2.46986       -0.40250
Cl        -1.87043        0.06111        2.32447
Pd        -0.16745        0.04286        0.85674
