111
-148.55158546
P         -1.60220        2.81814       -0.00440
P         -0.55483       -0.12139        0.52695
C         -1.64670        2.12998        1.68055
C         -1.26752        0.81926        1.88937
C         -0.35861        4.17190       -0.16960
C          0.66610        3.82181       -1.22788
C         -2.01426        2.91208        2.75714
H         -2.25274        3.95086        2.60402
C         -2.03600        2.37041        4.03079
H         -2.32761        2.98183        4.86914
C         -1.67565        1.05180        4.23125
H         -1.68569        0.63277        5.22396
C         -1.27684        0.27677        3.15727
H         -0.94939       -0.74130        3.29950
Pd        -1.26816        0.97949       -1.36499
Cl        -2.22214        2.08407       -3.06730
Cl        -0.84379       -0.88519       -2.54967
C         -1.22644        5.40025       -0.51641
C         -3.13910        3.69083       -0.56749
H          0.18094        3.66090       -2.19282
H          1.40127        4.62015       -1.35436
H          1.20500        2.90579       -0.97483
H         -0.66083        6.07340       -1.17718
H         -1.43041        5.98272        0.39420
H         -3.58446        3.05267       -1.34265
C         -2.57461        4.99140       -1.17678
C         -4.14013        3.92186        0.54442
H          0.11960        4.28588        0.81225
H         -3.31639        5.79740       -1.07705
H         -2.42277        4.85966       -2.25837
H         -4.38495        2.99038        1.05955
H         -3.74589        4.62124        1.28217
H         -5.06959        4.34959        0.16150
C         -0.89420       -4.65319        0.72011
C          0.26859       -4.00870        1.21439
C          0.33371       -2.62739        1.13857
C         -0.72345       -1.89448        0.66615
C         -1.89047       -2.50414        0.28832
C         -2.02238       -3.88260        0.33778
O         -0.91366       -6.06549        0.57041
C          1.46952       -4.78075        1.78260
H          1.22703       -2.10130        1.42879
H         -2.69366       -1.88458       -0.07225
C         -3.36041       -4.51905       -0.06956
C          3.72462        1.30891       -0.08135
C          3.17023        0.34152       -0.96117
C          1.86856       -0.07326       -0.73953
C          1.15996        0.36721        0.34614
C          1.73169        1.20734        1.26529
C          3.02956        1.66256        1.10611
O          4.91933        1.98692       -0.43545
C          3.91837       -0.26885       -2.15692
H          1.36835       -0.71269       -1.44703
H          1.14385        1.52531        2.10889
C          3.63196        2.51825        2.23280
C          2.20662       -3.93546        2.84663
C          1.01868       -6.07913        2.47593
C          2.45195       -5.09898        0.64507
C         -4.53746       -3.57380        0.26221
C         -3.35532       -4.78159       -1.58333
C         -3.61073       -5.83022        0.69750
C         -0.45113       -6.51932       -0.69569
H          2.97631       -4.52530        3.34390
H          2.70233       -3.07245        2.40445
H          1.51283       -3.58048        3.60829
H          1.86388       -6.59321        2.93294
H          0.28997       -5.86383        3.25670
H          0.55816       -6.76675        1.77113
H          1.98389       -5.71256       -0.12083
H          2.79835       -4.18230        0.16845
H          3.32352       -5.63491        1.01997
H         -4.52827       -2.68289       -0.36382
H         -5.49229       -4.07165        0.09462
H         -4.50151       -3.26157        1.30559
H         -2.55682       -5.46463       -1.86255
H         -4.29999       -5.21711       -1.90776
H         -3.20375       -3.85351       -2.13409
H         -3.57240       -5.65885        1.77273
H         -4.58842       -6.24573        0.45467
H         -2.86486       -6.58231        0.45337
H         -0.16642       -5.67288       -1.32204
H          0.40817       -7.17538       -0.55797
H         -1.23773       -7.08919       -1.18998
C          4.67801        3.16071       -1.19406
C          5.43192       -0.00028       -2.10169
C          3.72957       -1.80214       -2.14623
C          3.34098        0.30167       -3.46334
C          2.97529        3.90867        2.22623
C          3.35846        1.83757        3.59229
C          5.15764        2.66853        2.10398
H          5.64786        1.06058       -2.20361
H          5.84735       -0.33596       -1.15217
H          5.95282       -0.52131       -2.90465
H          4.30119       -2.26980       -2.94739
H          4.06895       -2.22364       -1.20049
H          2.68683       -2.08297       -2.28463
H          3.83713       -0.13259       -4.33079
H          2.27558        0.08844       -3.54498
H          3.46706        1.38166       -3.51033
H          1.90091        3.83165        2.38894
H          3.38785        4.53785        3.01445
H          3.13274        4.41442        1.27540
H          3.74929        0.82042        3.59803
H          3.83551        2.38589        4.40423
H          2.29366        1.79017        3.81457
H          5.63556        1.69180        2.03713
H          5.57469        3.19351        2.96307
H          5.42505        3.23195        1.21330
H          5.63087        3.61280       -1.46999
H          4.12096        2.91478       -2.09675
H          4.09885        3.87267       -0.60834
