105
-153.06636363
Cl        -0.00045        1.97828        3.06553
Pd        -0.47109        1.29303        0.96901
P         -1.11046        0.49480       -1.15196
N         -0.72111       -1.01275       -1.97624
C          0.19275       -2.00659       -1.62912
C          0.32677       -2.48660       -0.30195
C          1.28613       -3.48201       -0.02240
C          1.40410       -4.00575        1.38940
C          2.22723       -5.29592        1.52784
C          3.49892       -5.22855        0.67754
C          3.14726       -5.03724       -0.80510
C          2.08762       -3.99194       -1.04775
C          1.89966       -3.54116       -2.34825
C          0.96867       -2.57826       -2.63656
H          0.84762       -2.22662       -3.64631
H          2.50869       -3.95227       -3.13555
H          4.04510       -4.76989       -1.37712
H          4.11829       -4.38863        1.01670
H          2.47338       -5.49164        2.58107
H          1.85060       -3.22058        2.01025
C         -0.67098       -2.12581        0.73374
C         -0.24569       -1.54018        1.95738
C         -1.17734       -1.40653        2.99119
C         -2.47653       -1.81137        2.82800
C         -2.91363       -2.37586        1.63581
C         -4.34947       -2.83609        1.55326
C         -4.81362       -3.21200        0.13687
C         -3.73318       -4.01193       -0.59517
C         -2.43606       -3.19733       -0.70534
C         -2.00997       -2.53573        0.58306
H         -1.62110       -3.83843       -1.06392
H         -4.08488       -4.32541       -1.58833
H         -5.03369       -2.30034       -0.43195
H         -4.99567       -2.05334        1.96987
H         -3.17899       -1.69495        3.63593
H         -0.86468       -0.95226        3.91500
N          1.05128       -1.03694        2.13780
P          1.60447        0.18477        0.99373
C          2.61696       -0.36566       -0.36671
C          2.41148        0.19458       -1.60263
C          3.22964       -0.16050       -2.65929
C          4.26019       -1.07337       -2.47628
C          4.47158       -1.59999       -1.20840
C          3.65094       -1.24416       -0.15305
H          3.80977       -1.64520        0.83538
H          5.28065       -2.29301       -1.05329
C          5.14415       -1.45531       -3.61153
H          3.06853        0.26706       -3.63399
H          1.60613        0.89704       -1.73392
C          2.53359        1.49858        1.79069
C          3.24779        1.24915        2.93775
C          3.96488        2.27067        3.53398
C          3.96846        3.54607        2.98487
C          3.25703        3.77122        1.81405
C          2.54148        2.74870        1.21800
H          1.98544        2.92106        0.30933
H          3.26514        4.75304        1.37241
C          4.75511        4.64160        3.61607
H          4.52720        2.08254        4.43261
H          3.24944        0.25722        3.35955
H          1.20893       -0.60736        3.04021
H         -0.98985       -0.91698       -2.94747
C         -0.61524        1.87473       -2.19725
C         -0.87064        3.16311       -1.79261
C         -0.47610        4.22880       -2.57836
C          0.18340        4.01241       -3.78019
C          0.41804        2.70551       -4.18479
C          0.01949        1.64253       -3.39536
H          0.21770        0.63072       -3.70639
H          0.91661        2.52546       -5.12195
C          0.59172        5.15846       -4.63888
H         -0.67931        5.23763       -2.26192
H         -1.38484        3.32864       -0.86072
C         -2.90610        0.52739       -1.09371
C         -3.58352        0.80208       -2.25807
C         -4.96699        0.82539       -2.26188
C         -5.68054        0.57195       -1.09847
C         -4.97829        0.30632        0.06837
C         -3.59644        0.26931        0.06504
H         -3.04924        0.05696        0.96920
H         -5.52125        0.13301        0.98157
C         -7.16847        0.62359       -1.08998
H         -5.50083        1.04667       -3.17023
H         -3.02662        1.00171       -3.16029
Cl        -2.30362        2.60854        1.02757
H          2.80232       -5.98803       -1.22869
H          1.62038       -6.15089        1.20425
H          4.11474       -6.12744        0.82284
H          0.39545       -4.16045        1.79288
H         -3.53379       -4.94063       -0.04592
H         -2.55708       -2.41962       -1.46813
H         -4.47309       -3.69833        2.21944
H         -5.75875       -3.77223        0.16995
H          5.51908       -2.47292       -3.49258
H          4.60726       -1.41024       -4.56016
H          6.00225       -0.78508       -3.67735
H          4.82133        4.50643        4.69651
H          5.76995        4.66964        3.21702
H          4.29385        5.61300        3.43263
H          0.82768        6.03693       -4.03663
H          1.47709        4.91380       -5.22742
H         -0.20791        5.42886       -5.32983
H         -7.51934        1.61806       -0.81114
H         -7.57725        0.38534       -2.07291
H         -7.58204       -0.09173       -0.37755
