171
-217.84740643
P         -1.58724        0.42845       -0.25317
P          1.61343       -0.38885       -0.31330
C         -0.86374        1.38665       -1.58746
C          0.84518       -1.34375       -1.62501
C         -0.10547        0.76599       -2.57404
C          0.51268        1.56612       -3.55394
C          0.32453        2.93821       -3.52568
C         -0.44785        3.53124       -2.54918
C         -1.03534        2.74908       -1.57456
C          1.01477       -2.70654       -1.62919
C          0.39791       -3.47966       -2.59263
C         -0.39770       -2.87706       -3.54415
C         -0.58275       -1.50427       -3.55647
C          0.06051       -0.71395       -2.58438
Cl         1.65730        0.35729        2.89627
Cl        -1.51375       -0.35165        2.95689
C         -1.44731       -0.89216       -4.60237
C          1.36061        0.96660       -4.62061
H         -0.58997        4.59951       -2.54273
H         -1.63037        3.20275       -0.79836
H          1.63383       -3.16863       -0.87757
H          0.53767       -4.54824       -2.59884
H          0.79677        3.54473       -4.28006
H         -0.88935       -3.47638       -4.29184
C         -3.88866       -3.22392       -1.58904
C         -2.90250       -3.37215       -0.62213
C         -2.19602       -2.23987       -0.23681
C         -2.45407       -1.02849       -0.82744
C         -3.41826       -0.90129       -1.79746
C         -4.16637       -2.00400       -2.19291
H         -4.47527       -4.08143       -1.86248
H         -1.45110       -2.28742        0.53829
H         -3.59298        0.07089       -2.22646
C         -4.46555        2.87769        2.26467
C         -4.96682        1.88664        1.43002
C         -4.06011        1.16967        0.66310
C         -2.71558        1.44000        0.72264
C         -2.23755        2.42700        1.54925
C         -3.10764        3.16236        2.34541
H         -5.14283        3.43739        2.88188
H         -4.40869        0.37765        0.02435
H         -1.17633        2.60174        1.58680
C          4.40924       -2.90259        2.23041
C          3.04807       -3.18150        2.26056
C          2.21386       -2.43007        1.44319
C          2.72163       -1.42094        0.66294
C          4.06685       -1.14711        0.66171
C          4.94278       -1.89313        1.43935
H          5.07724       -3.47569        2.84526
H          1.15386       -2.61814        1.42903
H          4.42784       -0.33434        0.05775
C          3.93334        3.20645       -1.77202
C          2.95272        3.39128       -0.80589
C          2.24600        2.27486       -0.37676
C          2.50048        1.04183       -0.92316
C          3.45965        0.87827       -1.89273
C          4.20496        1.96573       -2.33418
H          4.51870        4.05259       -2.08115
H          1.49762        2.35428        0.39250
H          3.62855       -0.10861       -2.28913
Pd         0.03976        0.04686        1.37170
C         -1.43195       -4.71226        0.95365
C         -2.65717       -4.74308        0.02108
C         -2.40117       -5.79154       -1.07796
C         -3.89483       -5.14209        0.84348
H         -1.59136       -4.03169        1.78953
H         -1.23398       -5.70066        1.36801
H         -0.54368       -4.39230        0.40996
H         -2.18286       -6.76662       -0.64278
H         -3.26618       -5.90618       -1.72975
H         -1.55261       -5.50092       -1.69605
H         -3.74821       -6.10809        1.32630
H         -4.09538       -4.40301        1.61899
H         -4.78025       -5.21300        0.21250
C         -5.37492       -0.49988       -3.85366
C         -5.32642       -1.89141       -3.19240
C         -6.65046       -2.12322       -2.44171
C         -5.16895       -2.95080       -4.30014
H         -5.55069        0.28176       -3.11520
H         -4.44366       -0.27901       -4.37386
H         -6.18255       -0.44688       -4.58362
H         -6.67609       -3.11307       -1.98704
H         -6.77685       -1.38820       -1.64707
H         -7.50226       -2.04147       -3.11662
H         -5.21089       -3.96110       -3.89561
H         -5.96347       -2.85950       -5.04059
H         -4.21590       -2.83639       -4.81473
C         -6.93998        1.75513       -0.10992
C         -6.46010        1.54278        1.33794
C         -7.30819        2.42802        2.27072
C         -6.66558        0.06969        1.73947
H         -8.00137        1.52757       -0.20720
H         -6.78573        2.78873       -0.41907
H         -6.39714        1.11479       -0.80388
H         -8.36462        2.17158        2.19188
H         -7.01365        2.29557        3.31160
H         -7.20457        3.48179        2.01263
H         -7.72067       -0.20103        1.70461
H         -6.12759       -0.60262        1.07201
H         -6.30407       -0.10646        2.75232
C         -2.97295        3.79208        4.76524
C         -2.60954        4.22636        3.33359
C         -3.27405        5.57742        3.01154
C         -1.08171        4.40443        3.25276
H         -2.61329        4.51583        5.49636
H         -4.05124        3.69938        4.88913
H         -2.52555        2.82567        4.99716
H         -3.04666        5.88378        1.99059
H         -4.35733        5.52153        3.11105
H         -2.91818        6.35698        3.68496
H         -0.74150        5.16449        3.95588
H         -0.56341        3.47653        3.49427
H         -0.78325        4.72071        2.25446
C          1.21460       -3.74656        3.88801
C          2.45293       -4.28710        3.14390
C          3.46495       -4.77833        4.19758
C          2.04998       -5.47313        2.25204
H          0.81219       -4.49484        4.57043
H          1.47206       -2.86182        4.46987
H          0.41855       -3.47116        3.19857
H          3.81809       -3.95133        4.81341
H          3.00783       -5.51438        4.85885
H          4.32623       -5.25324        3.72859
H          1.59108       -6.26797        2.83976
H          1.33871       -5.16253        1.48880
H          2.92092       -5.88643        1.74367
C          6.83769       -0.49801        0.47154
C          6.45178       -1.61168        1.46518
C          7.21868       -2.89049        1.08018
C          6.85746       -1.16691        2.88175
H          6.34692        0.44187        0.72380
H          7.91308       -0.32128        0.48600
H          6.56112       -0.77141       -0.54655
H          6.91977       -3.23456        0.09018
H          8.29349       -2.71045        1.06451
H          7.02773       -3.69705        1.78690
H          7.92255       -0.94110        2.93042
H          6.30800       -0.27265        3.17531
H          6.64640       -1.94423        3.61527
C          1.47999        4.80173        0.70846
C          2.71424        4.78603       -0.21283
C          2.48111        5.80000       -1.34909
C          3.94853        5.19955        0.60754
H          1.29433        5.80582        1.08959
H          0.58907        4.47974        0.16991
H          1.62266        4.14579        1.56693
H          1.64106        5.49407       -1.97135
H          2.26138        6.78961       -0.94884
H          3.35681        5.89025       -1.99029
H          4.84087        5.23641       -0.01659
H          3.80944        6.18417        1.05356
H          4.13213        4.48666        1.41125
C          5.15304        2.82756       -4.50340
C          5.34583        1.82178       -3.35199
C          5.39616        0.40191       -3.94913
C          6.68339        2.10521       -2.64447
H          5.17825        3.85538       -4.14411
H          5.94093        2.71973       -5.24872
H          4.19761        2.67140       -5.00176
H          5.59402       -0.34254       -3.17825
H          4.45663        0.14930       -4.43986
H          6.18982        0.32266       -4.69190
H          6.83822        1.41063       -1.81971
H          7.52043        2.00186       -3.33472
H          6.70676        3.11577       -2.23784
H         -1.78435        0.10294       -4.30897
H          2.26639        1.55401       -4.76966
H         -2.33365       -1.50182       -4.77824
H         -0.91117       -0.80321       -5.54814
H          0.82545        0.93087       -5.57048
H          1.66652       -0.04874       -4.36501
