105
-153.06822507
Cl         0.56990        2.07381        3.00533
Pd        -0.35433        1.37715        1.07301
P         -1.22814        0.77990       -0.98697
N         -0.19332       -0.32331       -1.87625
C          0.32257       -1.59330       -1.65242
C          0.24982       -2.28394       -0.41605
C          0.92854       -3.51182       -0.26793
C          0.84776       -4.22877        1.05865
C          1.89945       -5.33390        1.24142
C          1.98947       -6.21434       -0.00831
C          2.36832       -5.37743       -1.23980
C          1.62774       -4.06712       -1.34175
C          1.65116       -3.39262       -2.55464
C          1.01801       -2.18692       -2.70606
H          1.07539       -1.66552       -3.64580
H          2.19561       -3.82107       -3.37913
H          3.44451       -5.16803       -1.22697
H          2.70556       -7.03442        0.14355
H          2.87798       -4.87596        1.43304
H          0.94206       -3.49099        1.86472
C         -0.67280       -1.86854        0.66845
C         -0.16596       -1.29067        1.86823
C         -1.04106       -1.13166        2.94896
C         -2.35954       -1.49463        2.84944
C         -2.86744       -2.07146        1.69118
C         -4.31583       -2.50195        1.69072
C         -4.80659       -3.14753        0.38226
C         -3.69772       -3.95187       -0.30205
C         -2.49038       -3.05273       -0.60171
C         -2.01554       -2.28334        0.60567
H         -1.66420       -3.65426       -1.00016
H         -4.06861       -4.43057       -1.21949
H         -5.15142       -2.36598       -0.30385
H         -4.93590       -1.63074        1.93729
H         -3.02042       -1.34340        3.68611
H         -0.67114       -0.67906        3.85208
N          1.15426       -0.83078        1.98307
P          1.74030        0.23480        0.69897
C          2.92171       -0.65779       -0.31519
C          3.26965       -0.21256       -1.56777
C          4.21859       -0.90477       -2.29791
C          4.83754       -2.03001       -1.76854
C          4.48495       -2.45066       -0.49345
C          3.53243       -1.75945        0.23283
H          3.24871       -2.07827        1.22312
H          4.95425       -3.32490       -0.07587
C          5.82553       -2.80067       -2.57259
H          4.48200       -0.57613       -3.28870
H          2.79711        0.66802       -1.97024
C          2.70352        1.61572        1.32243
C          3.56147        1.44017        2.38091
C          4.31051        2.50948        2.83795
C          4.20258        3.75671        2.23671
C          3.34566        3.90560        1.15426
C          2.59791        2.83602        0.69705
H          1.92854        2.94877       -0.14140
H          3.26568        4.86507        0.67250
C          5.02180        4.90349        2.71744
H          4.98407        2.38118        3.66796
H          3.64333        0.46980        2.84368
H          1.38031       -0.36462        2.85276
H         -0.20748       -0.00325       -2.83675
C         -1.01989        2.38964       -1.75111
C         -2.04292        3.30741       -1.74549
C         -1.83967        4.56330       -2.28767
C         -0.60716        4.91129       -2.82474
C          0.41315        3.96940       -2.82173
C          0.20631        2.71317       -2.28149
H          0.99710        1.98139       -2.26730
H          1.37019        4.22574       -3.24308
C         -0.39660        6.25790       -3.42471
H         -2.63826        5.28534       -2.29079
H         -2.99116        3.04206       -1.30663
C         -2.93272        0.30056       -1.28592
C         -3.24574       -0.24274       -2.50983
C         -4.55622       -0.57771       -2.80216
C         -5.56576       -0.35262       -1.87678
C         -5.23214        0.20333       -0.64920
C         -3.92170        0.53099       -0.36022
H         -3.66717        0.99111        0.57846
H         -6.00556        0.38038        0.07853
C         -6.97122       -0.73589       -2.18564
H         -4.80294       -1.01608       -3.75402
H         -2.46215       -0.40816       -3.23166
Cl        -2.32415        2.32608        1.57345
H          2.19437       -5.95375       -2.15754
H          1.67904       -5.94078        2.13097
H          1.01984       -6.69832       -0.18088
H         -0.15784       -4.65244        1.16530
H         -3.38481       -4.77274        0.35536
H         -2.74263       -2.34463       -1.39649
H         -4.46151       -3.20501        2.51971
H         -5.68674       -3.77956        0.56627
H          6.55897       -3.29083       -1.93082
H          5.32662       -3.57079       -3.16262
H          6.36874       -2.14950       -3.25883
H          5.22517        4.82111        3.78602
H          5.97818        4.94292        2.19429
H          4.50743        5.85107        2.55151
H         -0.71195        6.27038       -4.46891
H         -0.96755        7.01909       -2.89114
H          0.65472        6.54670       -3.38706
H         -7.22742       -0.48522       -3.21598
H         -7.11894       -1.80867       -2.05361
H         -7.67559       -0.21722       -1.53387
