64
-97.20804693
Cl        -1.52092       -1.57884       -2.52958
Cl         1.67773       -2.10288       -2.59923
P          1.97720       -0.57228        0.22326
C          2.37881       -2.20466        0.99045
C          3.67757       -0.05016       -0.30156
P         -1.25291       -0.14806        0.36130
C          1.27227        0.61303        1.42101
C         -0.16232        0.80182        1.48876
C         -0.42986        1.84998        2.46333
C          0.84520        2.30844        2.98829
C          1.89932        1.54193        2.34657
H         -1.41209        2.23753        2.73811
H          0.98607        3.08589        3.74238
Pd         0.23797       -1.05414       -1.24006
H          2.97239        1.63938        2.52229
C         -4.72448        2.49716       -0.93644
C         -3.96122        1.85740       -1.89262
C         -2.92433        1.03022       -1.50401
C         -2.64479        0.85790       -0.16744
C         -3.41697        1.47783        0.78884
C         -4.45924        2.30273        0.40472
H         -5.53494        3.14103       -1.23708
H         -4.17716        1.99534       -2.93942
H         -2.34312        0.49842       -2.23778
H         -3.20772        1.30667        1.83241
H         -5.06211        2.79237        1.15182
C         -2.82398       -3.87708        2.43074
C         -2.75916       -3.83500        1.05169
C         -2.28494       -2.70028        0.42124
C         -1.87815       -1.62031        1.16855
C         -1.94450       -1.65451        2.54258
C         -2.41833       -2.78842        3.17816
H         -3.19301       -4.76109        2.92480
H         -3.07625       -4.68337        0.46772
H         -2.22327       -2.64704       -0.65316
H         -1.61960       -0.79712        3.11038
H         -2.46949       -2.82131        4.25408
C          3.74612        0.25107       -1.78383
H          3.91143        0.84308        0.29191
C          4.57218       -1.23180        0.12319
H          5.55167       -0.86688        0.46668
C          3.89840       -2.11328        1.20902
H          4.78427       -1.84781       -0.76118
C          1.57911       -2.43190        2.25459
H          2.14651       -2.96792        0.23576
H          4.08738       -1.68311        2.20235
H          4.34327       -3.11986        1.23280
H          1.85411       -3.37230        2.73751
H          1.75124       -1.62669        2.97133
H          0.50837       -2.46162        2.04540
H          3.51014       -0.63873       -2.36858
H          3.03558        1.02565       -2.07464
H          4.74504        0.58105       -2.07760
Fe         0.75336        2.51031        0.93582
C          1.95222        3.15845       -0.59172
C          1.48415        4.28002        0.20413
C          0.03209        4.26954        0.17703
C         -0.39160        3.14875       -0.64194
C          0.79241        2.46176       -1.12004
H          2.99871        2.91997       -0.79243
H          2.11268        5.00960        0.72004
H         -0.62583        4.99076        0.66752
H         -1.42380        2.89033       -0.87975
H          0.80289        1.60794       -1.79985
