111
-148.55409338
P         -2.41029        2.34608       -0.04429
P         -0.00465        0.34454        0.46963
C         -1.73145        2.16963        1.62382
C         -0.72366        1.25835        1.84986
C         -2.54002        4.11840       -0.55056
C         -1.80484        4.34153       -1.85429
C         -2.23669        2.91340        2.67088
H         -3.00892        3.64121        2.48245
C         -1.74625        2.72247        3.95112
H         -2.14150        3.30117        4.76995
C         -0.75758        1.78524        4.18127
H         -0.38133        1.62969        5.17899
C         -0.24568        1.05001        3.12722
H          0.52538        0.31317        3.29090
Pd        -1.27093        0.87520       -1.41073
Cl        -2.79731        1.24254       -3.01249
Cl         0.02045       -0.49460       -2.63348
C         -4.06284        4.35049       -0.64246
C         -4.18897        1.83574       -0.17028
H         -0.74747        4.07993       -1.76472
H         -2.23065        3.72075       -2.64509
H         -1.87021        5.38277       -2.17931
H         -4.27449        5.08567       -1.43250
H         -4.42948        4.80466        0.28979
H         -4.20925        0.92809       -0.78902
C         -4.83407        3.02672       -0.90733
C         -4.79640        1.55962        1.18921
H         -2.09179        4.71609        0.25480
H         -5.88668        3.12219       -0.60323
H         -4.85369        2.82835       -1.98909
H         -4.83341        2.47104        1.78750
H         -5.81901        1.18475        1.10293
H         -4.21098        0.82481        1.74610
C         -1.11156       -4.06466        0.66317
C          0.25400       -3.69144        0.75533
C          0.57202       -2.34537        0.69228
C         -0.40817       -1.39179        0.61555
C         -1.73368       -1.73998        0.63162
C         -2.12150       -3.06879        0.68548
O         -1.46489       -5.43309        0.51985
C          1.38775       -4.72152        0.88063
H          1.59773       -2.02230        0.68758
H         -2.46605       -0.95217        0.58234
C         -3.61993       -3.40786        0.71694
C          4.48877        1.08834        0.06113
C          3.82329        0.22259       -0.84246
C          2.45537        0.06200       -0.70656
C          1.76290        0.64406        0.32257
C          2.42283        1.40278        1.25530
C          3.78905        1.61538        1.17590
O          5.84003        1.45995       -0.16996
C          4.54751       -0.51551       -1.97931
H          1.89837       -0.50257       -1.43191
H          1.85064        1.84470        2.05026
C          4.48729        2.42708        2.27893
C          2.60306       -4.11182        1.61657
C          0.93555       -5.94444        1.69900
C          1.83681       -5.15771       -0.52235
C         -4.13401       -3.56576       -0.72247
C         -3.88127       -4.69268        1.52330
C         -4.42331       -2.27694        1.39799
C         -1.54043       -5.87777       -0.82895
H          2.30144       -3.67698        2.56912
H          3.35420       -4.87465        1.82025
H          3.08789       -3.33773        1.02365
H          0.12621       -6.47593        1.20473
H          1.75583       -6.64832        1.83738
H          0.58167       -5.63798        2.68278
H          2.16076       -4.29793       -1.10759
H          2.66711       -5.86117       -0.46587
H          1.02709       -5.63817       -1.06527
H         -3.97666       -2.64841       -1.28956
H         -3.61532       -4.36695       -1.24246
H         -5.19997       -3.79150       -0.73405
H         -3.40915       -5.55558        1.06061
H         -3.48570       -4.59789        2.53400
H         -4.94865       -4.90022        1.59468
H         -3.99957       -2.02949        2.37098
H         -4.43812       -1.37590        0.78727
H         -5.46033       -2.57542        1.55005
H         -1.28961       -5.06512       -1.51200
H         -0.84998       -6.70746       -0.97928
H         -2.54804       -6.23471       -1.04100
C          5.99045        2.61373       -0.98784
C          6.00639       -0.83065       -1.60210
C          3.86019       -1.86920       -2.27023
C          4.50072        0.34391       -3.25153
C          3.74347        2.27403        3.62555
C          5.92714        1.93026        2.50348
C          4.49514        3.91330        1.89090
H          6.58534        0.07778       -1.45769
H          6.04769       -1.40324       -0.67609
H          6.49604       -1.41230       -2.38276
H          4.43573       -2.44854       -2.99173
H          3.77467       -2.46006       -1.35917
H          2.86385       -1.73720       -2.68898
H          3.46974        0.53718       -3.54709
H          4.98573        1.30484       -3.09597
H          5.00111       -0.15677       -4.07993
H          2.76522        2.75208        3.60309
H          3.60690        1.22226        3.87585
H          4.30727        2.73944        4.43372
H          6.40122        2.46214        3.32799
H          5.93382        0.86621        2.73746
H          6.54120        2.08111        1.61905
H          4.96724        4.51655        2.66595
H          3.47865        4.27992        1.74974
H          5.03774        4.07564        0.96279
H          6.52281        2.35025       -1.90149
H          5.01466        3.02859       -1.24353
H          6.57673        3.36314       -0.45616
