111
-148.55538292
P         -2.60555        2.04449        0.80909
P          0.14765        0.46737        0.43120
C         -1.47261        1.83961        2.20999
C         -0.26812        1.19216        2.03249
C         -3.47186        3.67900        0.83479
C         -2.92432        4.60528       -0.22907
C         -1.82015        2.31609        3.45768
H         -2.77205        2.80217        3.59620
C         -0.95342        2.15173        4.52448
H         -1.22414        2.52435        5.49889
C          0.25527        1.50762        4.34292
H          0.92895        1.37715        5.17377
C          0.59622        1.02134        3.09367
H          1.52820        0.50021        2.93889
Pd        -1.35795        1.46095       -1.02904
Cl        -3.04076        2.04345       -2.38595
Cl         0.07949        0.81740       -2.64014
C         -4.94956        3.28697        0.64490
C         -4.05596        0.89782        0.85909
H         -3.05136        4.17185       -1.22227
H         -3.43795        5.56953       -0.22218
H         -1.85659        4.78767       -0.08559
H         -5.19471        3.34668       -0.42450
H         -5.60744        4.01749        1.13984
H         -4.14934        0.48196       -0.15321
C         -5.23202        1.84591        1.15833
C         -3.85691       -0.20450        1.87655
H         -3.31344        4.10272        1.83455
H         -5.39945        1.86988        2.24399
H         -6.16294        1.44960        0.72490
H         -2.98588       -0.81526        1.63078
H         -3.69498        0.21186        2.87252
H         -4.72705       -0.86301        1.92832
C         -1.16953       -3.89229        0.28054
C         -1.00748       -3.25466        1.53764
C         -0.58795       -1.93490        1.55598
C         -0.40519       -1.23701        0.39142
C         -0.66327       -1.81844       -0.82107
C         -1.08432       -3.13226       -0.91348
O         -1.37884       -5.29567        0.21811
C         -1.24891       -3.98361        2.86867
H         -0.39137       -1.43230        2.48635
H         -0.51650       -1.22325       -1.70504
C         -1.41037       -3.70876       -2.29946
C          4.55104        0.76231       -0.70197
C          3.81571       -0.41745       -0.99017
C          2.47807       -0.45448       -0.63724
C          1.88829        0.58368        0.03452
C          2.62082        1.67803        0.41356
C          3.96820        1.77706        0.10425
O          5.83106        0.95912       -1.28071
C          4.40786       -1.66213       -1.67246
H          1.87171       -1.30344       -0.90160
H          2.12462        2.46386        0.95758
C          4.75125        2.97157        0.67596
C          0.05116       -4.66863        3.31600
C         -1.68436       -2.98872        3.96880
C         -2.37665       -5.02257        2.73191
C         -2.49155       -4.80051       -2.20835
C         -1.96469       -2.60387       -3.22906
C         -0.12817       -4.27900       -2.92490
C         -0.18073       -6.05479        0.11374
H         -0.08544       -5.18243        4.26722
H          0.38291       -5.40082        2.58392
H          0.84951       -3.93702        3.43861
H         -2.54158       -2.40031        3.64345
H         -1.96946       -3.51842        4.87750
H         -0.88011       -2.30529        4.23711
H         -2.10865       -5.80840        2.02991
H         -2.59197       -5.49573        3.68963
H         -3.29099       -4.55114        2.37302
H         -2.14758       -5.65344       -1.62899
H         -3.38913       -4.41167       -1.72860
H         -2.76614       -5.16379       -3.19833
H         -2.79748       -2.08237       -2.75795
H         -1.20244       -1.86936       -3.48429
H         -2.32324       -3.02981       -4.16573
H          0.29159       -5.07226       -2.31080
H         -0.32520       -4.68764       -3.91562
H          0.62952       -3.50212       -3.02489
H          0.68993       -5.39827        0.14207
H         -0.12723       -6.76597        0.93793
H         -0.18172       -6.61631       -0.82025
C          5.76992        1.60652       -2.54066
C          3.95369       -2.93105       -0.91550
C          3.90057       -1.73656       -3.12230
C          5.94606       -1.65813       -1.66218
C          4.40398        3.14326        2.17178
C          6.27417        2.76890        0.59056
C          4.35957        4.25087       -0.08152
H          4.22051       -2.86591        0.13894
H          2.87736       -3.08138       -0.98223
H          4.42952       -3.82030       -1.32817
H          4.22362       -0.87114       -3.69738
H          4.27486       -2.63021       -3.62096
H          2.81177       -1.76585       -3.15224
H          6.34406       -2.58847       -2.06670
H          6.34232       -0.84266       -2.26249
H          6.32315       -1.53937       -0.64702
H          3.35818        3.40821        2.31780
H          4.59765        2.22135        2.71945
H          5.00416        3.93377        2.62161
H          6.80688        3.57966        1.08700
H          6.56415        1.83133        1.06356
H          6.61104        2.73899       -0.44287
H          3.28886        4.43697       -0.00389
H          4.60685        4.17399       -1.13848
H          4.88117        5.11795        0.32291
H          6.77938        1.71871       -2.93682
H          5.17359        1.01700       -3.23495
H          5.31336        2.58907       -2.43447
