64
-97.21720235
Cl        -1.61094       -1.33127       -2.51331
Cl         1.62252       -1.32833       -2.91513
P          1.94816       -0.63340        0.26346
C          2.14092       -2.31030        1.02479
C          3.73544       -0.22439       -0.03544
P         -1.28559       -0.13369        0.41733
C          1.26025        0.58741        1.43815
C         -0.16624        0.83798        1.49582
C         -0.39509        1.93697        2.42237
C          0.89601        2.38506        2.91231
C          1.91961        1.55944        2.29603
H         -1.36758        2.32327        2.73324
H          1.06650        3.19025        3.63025
Pd         0.19190       -0.90126       -1.25218
H          2.99659        1.63838        2.45840
C         -5.05406        2.09065       -0.88714
C         -4.88782        0.75308       -1.18490
C         -3.73837        0.09587       -0.78423
C         -2.75937        0.77276       -0.09290
C         -2.93003        2.10484        0.21083
C         -4.07531        2.76818       -0.18833
H         -5.94765        2.60569       -1.20022
H         -5.64944        0.22137       -1.73130
H         -3.59600       -0.94703       -1.01676
H         -2.16329        2.62810        0.75366
H         -4.20256        3.81244        0.04586
C         -2.58328       -3.95547        2.50159
C         -2.37932       -2.80384        3.23702
C         -1.99294       -1.63828        2.59938
C         -1.81197       -1.63679        1.23566
C         -2.02106       -2.77870        0.49814
C         -2.40683       -3.94506        1.13164
H         -2.88380       -4.86390        2.99777
H         -2.51904       -2.81236        4.30552
H         -1.82337       -0.73094        3.15734
H         -1.89171       -2.74491       -0.57154
H         -2.57086       -4.84177        0.55693
C          4.10910       -0.29235       -1.50010
H          3.90078        0.78770        0.35649
C          4.47004       -1.27768        0.81717
H          4.64836       -0.88345        1.82842
C          3.65168       -2.59289        0.91368
H          5.46597       -1.46989        0.39192
C          1.63286       -2.30063        2.45022
H          1.55820       -3.01063        0.41073
H          3.97907       -3.19145        1.77595
H          3.85331       -3.21346        0.02848
H          2.18936       -1.57815        3.05061
H          0.57929       -2.01929        2.49462
H          1.74059       -3.28001        2.92234
H          3.54309        0.42282       -2.09857
H          5.17113       -0.08765       -1.65188
H          3.90444       -1.28684       -1.89975
Fe         0.81079        2.46384        0.84674
C         -0.02739        2.73772       -1.00882
C          1.33198        2.25077       -1.12815
C          2.21239        3.19914       -0.47329
C          1.39518        4.27807        0.05438
C          0.00927        3.98875       -0.27232
H         -0.91172        2.26647       -1.44246
H          1.63432        1.36025       -1.68153
H          3.30145        3.13406       -0.42032
H          1.75986        5.15949        0.58652
H         -0.84919        4.62395       -0.04226
