171
-217.83928618
P         -1.60042        0.74142        0.33192
P          1.46653       -0.25125       -0.37649
C         -0.94272        1.75529       -1.00927
C          0.48535       -1.01828       -1.67596
C         -0.40255        1.24674       -2.18460
C          0.17097        2.14450       -3.10481
C          0.15344        3.50231       -2.83340
C         -0.39133        3.98783       -1.66468
C         -0.92995        3.10554       -0.74854
C          0.59520       -2.36411       -1.92399
C         -0.15851       -2.94920       -2.92189
C         -1.02614       -2.17612       -3.66530
C         -1.15738       -0.81718       -3.42799
C         -0.36466       -0.21856       -2.42950
Cl         2.38576        1.40563        2.35204
Cl        -0.61061        0.94259        3.47907
C         -2.11449       -0.01271       -4.23627
C          0.81593        1.67235       -4.35964
H         -0.38833        5.04617       -1.46110
H         -1.33771        3.46684        0.18427
H          1.27709       -2.95782       -1.34019
H         -0.07201       -4.00596       -3.11526
H          0.58537        4.18162       -3.54890
H         -1.60855       -2.62780       -4.45012
C         -2.94585       -3.52267       -0.41623
C         -1.85623       -3.32098        0.42335
C         -1.42113       -2.01618        0.62012
C         -2.05944       -0.96687        0.00057
C         -3.14593       -1.18621       -0.81019
C         -3.61643       -2.47400       -1.03188
H         -3.30140       -4.52139       -0.58583
H         -0.58731       -1.81837        1.26991
H         -3.63577       -0.33914       -1.25690
C         -5.44914        2.72086        1.67772
C         -5.17693        2.60529        0.32043
C         -3.97489        2.01565       -0.05088
C         -3.09544        1.56233        0.90220
C         -3.38181        1.68772        2.23733
C         -4.56843        2.27435        2.65491
H         -6.37546        3.17195        1.98292
H         -3.71036        1.90894       -1.08928
H         -2.65883        1.33528        2.94895
C          3.89350       -3.49995        1.72253
C          4.06560       -3.27655        0.36302
C          3.32726       -2.25814       -0.22571
C          2.41613       -1.52834        0.49917
C          2.25552       -1.77951        1.84260
C          3.00276       -2.75703        2.48433
H          4.47095       -4.26297        2.20945
H          3.46636       -2.03441       -1.26809
H          1.55091       -1.20254        2.40968
C          4.32693        2.60754       -2.42720
C          3.62635        3.04975       -1.31192
C          2.77552        2.15255       -0.68059
C          2.62058        0.87764       -1.16257
C          3.30315        0.46527       -2.28162
C          4.18920        1.31813       -2.92813
H          5.00000        3.29080       -2.90983
H          2.22764        2.44229        0.19742
H          3.12947       -0.52383       -2.66936
Pd         0.41938        0.73745        1.50211
C         -1.86722       -5.82620        0.89508
C         -1.18191       -4.47577        1.18081
C         -1.27096       -4.19844        2.69280
C          0.29228       -4.58540        0.75768
H         -2.91535       -5.80539        1.19306
H         -1.81162       -6.07837       -0.16377
H         -1.38275       -6.62965        1.44990
H         -2.30976       -4.08402        3.00173
H         -0.83759       -5.01666        3.26718
H         -0.74239       -3.28431        2.95773
H          0.82439       -3.65681        0.95084
H          0.79962       -5.38012        1.30412
H          0.37190       -4.80721       -0.30589
C         -5.51686       -1.44639       -2.37807
C         -4.86587       -2.75234       -1.88041
C         -5.90149       -3.50924       -1.02719
C         -4.47691       -3.60554       -3.09982
H         -4.83352       -0.88086       -3.01003
H         -6.40941       -1.65819       -2.96659
H         -5.81505       -0.81514       -1.54114
H         -6.81500       -3.69078       -1.59323
H         -5.51786       -4.47424       -0.69851
H         -6.16325       -2.93271       -0.14008
H         -4.02579       -4.54909       -2.79476
H         -5.34991       -3.83328       -3.71122
H         -3.75863       -3.07715       -3.72448
C         -6.43873        4.61121       -0.50081
C         -6.19362        3.10631       -0.71472
C         -7.51410        2.33339       -0.54303
C         -5.68826        2.89470       -2.15597
H         -5.50746        5.16946       -0.59531
H         -7.14201        5.00040       -1.23686
H         -6.84878        4.80959        0.48871
H         -7.93947        2.49176        0.44730
H         -8.25215        2.65346       -1.27833
H         -7.35279        1.26309       -0.67029
H         -4.75634        3.43309       -2.32802
H         -5.52013        1.83794       -2.36246
H         -6.41790        3.25889       -2.87906
C         -6.22437        1.66747        4.43732
C         -4.92354        2.43554        4.13991
C         -5.11686        3.92973        4.45723
C         -3.81102        1.88350        5.05327
H         -6.11030        0.61066        4.19660
H         -6.49230        1.74699        5.49074
H         -7.05666        2.05593        3.85156
H         -4.21081        4.49108        4.22983
H         -5.93081        4.35713        3.87286
H         -5.35014        4.07766        5.51151
H         -3.64931        0.82041        4.87651
H         -2.87003        2.40726        4.88651
H         -4.07528        2.00663        6.10338
C          6.26189       -3.17160       -0.82414
C          5.06531       -4.07620       -0.48398
C          4.38370       -4.54954       -1.78367
C          5.57899       -5.32009        0.26719
H          6.98583       -3.69604       -1.44752
H          5.93697       -2.28082       -1.35943
H          6.76880       -2.84571        0.08392
H          5.05881       -5.16948       -2.37332
H          3.49458       -5.13863       -1.55916
H          4.08148       -3.70999       -2.40810
H          6.23948       -5.91001       -0.36825
H          6.14605       -5.04033        1.15461
H          4.75147       -5.96041        0.57255
C          1.87239       -2.05714        4.65806
C          2.88977       -3.00812        3.99524
C          4.26391       -2.77347        4.64966
C          2.43922       -4.45908        4.24001
H          0.87447       -2.19408        4.24409
H          1.81097       -2.24264        5.73014
H          2.16156       -1.01536        4.52043
H          4.21273       -2.92078        5.72828
H          5.01365       -3.45817        4.25515
H          4.60827       -1.75635        4.46348
H          3.15789       -5.17089        3.83561
H          2.33346       -4.66042        5.30585
H          1.47828       -4.64863        3.76430
C          2.92131        4.77495        0.42055
C          3.81712        4.48436       -0.80039
C          3.45165        5.47849       -1.91776
C          5.28633        4.68233       -0.38632
H          1.86781        4.64591        0.17364
H          3.16421        4.11387        1.25218
H          3.05654        5.80005        0.76480
H          3.56469        6.50734       -1.57651
H          4.08799        5.34572       -2.79180
H          2.41784        5.33987       -2.23210
H          5.56495        3.97107        0.39101
H          5.95865        4.53539       -1.23082
H          5.45080        5.68776        0.00075
C          4.04863        0.38326       -5.26321
C          4.99998        0.80134       -4.12743
C          5.82926       -0.41819       -3.68379
C          5.96336        1.87496       -4.66882
H          3.34479       -0.37902       -4.93108
H          3.47838        1.23752       -5.62525
H          4.60652       -0.02444       -6.10608
H          6.45374       -0.78415       -4.49859
H          6.48019       -0.15839       -2.84923
H          5.18441       -1.23685       -3.36728
H          6.53692        1.48980       -5.51186
H          5.41808        2.75264       -5.01549
H          6.67274        2.18741       -3.90269
H         -1.65320        0.32506       -5.16498
H          0.18250        1.87299       -5.22476
H         -2.45401        0.86658       -3.68648
H         -2.99630       -0.59882       -4.49841
H          1.01941        0.60140       -4.32745
H          1.76558        2.18586       -4.51469
