59
-75.79884125
Cl         1.55270        0.68089        2.40024
P          1.57736        0.11284       -0.81406
P         -1.57436       -0.26839       -0.75989
C          0.58063        0.24825       -2.36260
H          0.23911        1.27958       -2.46580
H          1.22469        0.02521       -3.21889
C         -0.59527       -0.68140       -2.27097
H         -0.25404       -1.71495       -2.19118
H         -1.24975       -0.61511       -3.14566
C          2.67505       -1.38456       -0.85239
H          2.44447       -1.93840       -1.77096
C          2.85277        1.44511       -0.56439
H          2.53174        2.03987        0.29999
C         -2.86158       -1.52374       -0.27835
H         -2.54490       -1.95669        0.67884
C         -2.65815        1.21071       -1.05530
H         -2.42280        1.59626       -2.05513
C          4.08595       -0.76642       -0.91029
H          4.81125       -1.44485       -0.43751
H          4.41024       -0.66878       -1.95700
C          4.11799        0.62816       -0.23141
H          5.01663        1.18631       -0.53247
H          4.20164        0.49871        0.85797
C         -4.12018       -0.65061       -0.09781
H         -5.02298       -1.24514       -0.30065
H         -4.20536       -0.33288        0.95206
C         -4.07456        0.60442       -1.00853
H         -4.79405        1.36111       -0.66269
H         -4.39864        0.32927       -2.02322
C          2.47400       -2.28418        0.36659
H          2.48838       -1.65928        1.26928
H          3.34149       -2.95140        0.46676
C          3.04117        2.35711       -1.78074
H          4.04736        2.79723       -1.74055
H          3.03713        1.74154       -2.68939
C         -3.05740       -2.63778       -1.31136
H         -4.06576       -3.05806       -1.19175
H         -3.05214       -2.19512       -2.31563
C         -2.44911        2.30531       -0.00954
H         -3.31050        2.98755       -0.02720
H         -2.46928        1.84574        0.98720
C          1.20257       -3.11556        0.31115
H          1.07834       -3.73405        1.20296
H          1.20759       -3.78306       -0.55254
H          0.31661       -2.48674        0.22766
C          2.01626        3.47656       -1.88003
H          2.02830        4.10203       -0.98527
H          1.00416        3.09130       -1.98639
H          2.20435        4.12785       -2.73678
C         -2.03836       -3.76238       -1.20937
H         -2.23102       -4.55537       -1.93574
H         -2.05228       -4.21768       -0.21717
H         -1.02441       -3.40776       -1.38330
C         -1.17016        3.10317       -0.20486
H         -0.29040        2.46061       -0.18320
H         -1.17180        3.61696       -1.16792
H         -1.03755        3.86082        0.57081
Cl        -1.61707       -0.14801        2.41655
Pd         0.01780        0.05749        0.89257
