111
-148.55556283
P         -2.64035        2.08269        0.51140
P          0.05873        0.42627        0.52029
C         -1.81743        1.71531        2.08281
C         -0.62232        1.02949        2.07763
C         -3.36692        3.78431        0.49504
C         -2.56516        4.71329       -0.39035
C         -2.38368        2.10367        3.27995
H         -3.32683        2.62528        3.27859
C         -1.74438        1.80722        4.47158
H         -2.18569        2.10925        5.40734
C         -0.54408        1.12248        4.46345
H         -0.04826        0.88914        5.39129
C          0.01722        0.72878        3.26191
H          0.94540        0.17956        3.23737
Pd        -1.13694        1.52680       -1.14264
Cl        -2.55811        2.26958       -2.70258
Cl         0.59361        0.96683       -2.47273
C         -4.81297        3.53807        0.02481
C         -4.16150        1.07104        0.21975
H         -2.99331        5.71829       -0.40630
H         -1.52951        4.79026       -0.05042
H         -2.54567        4.34739       -1.41810
H         -4.85780        3.67967       -1.06383
H         -5.48914        4.29567        0.44929
H         -4.10190        0.72770       -0.82185
C         -5.29464        2.10168        0.37776
C         -4.23686       -0.10501        1.16881
H         -3.35680        4.13652        1.53447
H         -5.65102        2.07918        1.41686
H         -6.16108        1.81532       -0.23768
H         -5.14894       -0.68604        1.01377
H         -3.38356       -0.77313        1.03563
H         -4.23019        0.23248        2.20682
C         -1.26790       -3.86740       -0.22280
C         -0.57273       -3.14945       -1.22917
C         -0.21819       -1.83785       -0.96797
C         -0.45238       -1.26954        0.25515
C         -1.02435       -1.99324        1.26803
C         -1.41578       -3.30701        1.07218
O         -1.84603       -5.13037       -0.51930
C         -0.21895       -3.75423       -2.59635
H          0.23498       -1.22435       -1.72694
H         -1.16662       -1.51246        2.21950
C         -2.01140       -4.09684        2.24836
C          4.58917        0.66198        0.17869
C          3.97757       -0.50751        0.69870
C          2.59577       -0.54006        0.78469
C          1.84063        0.55467        0.45380
C          2.43286        1.72640        0.06364
C          3.80969        1.82411       -0.05467
O          5.97106        0.65570       -0.14917
C          4.77775       -1.74799        1.12516
H          2.08444       -1.43606        1.09254
H          1.79713        2.56029       -0.17982
C          4.42726        3.16134       -0.49160
C          1.09008       -3.13534       -3.13939
C          0.01457       -5.27204       -2.49073
C         -1.35173       -3.45740       -3.59049
C         -1.64093       -5.58808        2.15328
C         -1.45520       -3.57783        3.59389
C         -3.53865       -3.93131        2.25605
C         -3.17036       -5.05436       -1.03182
H          1.88949       -3.21190       -2.40283
H          1.41624       -3.65041       -4.04258
H          0.96366       -2.08542       -3.39893
H          0.32733       -5.68802       -3.44814
H          0.78942       -5.49038       -1.75657
H         -0.88928       -5.79304       -2.18559
H         -1.12442       -3.86557       -4.57490
H         -2.29267       -3.88814       -3.25642
H         -1.49872       -2.38272       -3.69626
H         -2.00701       -6.13901        3.01927
H         -2.07043       -6.04711        1.26613
H         -0.55968       -5.71250        2.10407
H         -1.77457       -4.21713        4.41663
H         -0.36556       -3.56445        3.58405
H         -1.80963       -2.57204        3.81526
H         -3.97914       -4.28917        1.32876
H         -3.98718       -4.48808        3.07840
H         -3.81273       -2.88323        2.37115
H         -3.50807       -4.01759       -1.06183
H         -3.20002       -5.47516       -2.03665
H         -3.83965       -5.63723       -0.39916
C          6.24705        0.22404       -1.47601
C          4.05397       -2.49392        2.26972
C          4.91242       -2.70101       -0.07237
C          6.16953       -1.35858        1.65541
C          3.56419        4.34698       -0.00342
C          5.83081        3.35078        0.11164
C          4.49775        3.20659       -2.02576
H          3.12321       -2.94734        1.93206
H          4.67659       -3.29774        2.66193
H          3.82680       -1.81521        3.09145
H          3.93062       -3.00904       -0.43139
H          5.43182       -2.22385       -0.89999
H          5.46791       -3.59734        0.20231
H          6.70981       -2.23294        2.01746
H          6.77519       -0.89605        0.88034
H          6.08186       -0.64936        2.47779
H          4.06355        5.29544       -0.20014
H          2.60197        4.38196       -0.51208
H          3.38423        4.27962        1.06918
H          6.24028        4.32677       -0.14774
H          5.79482        3.27559        1.19791
H          6.52447        2.59682       -0.25176
H          3.50416        3.09616       -2.45966
H          5.11862        2.40369       -2.41567
H          4.91449        4.15255       -2.37047
H          6.88351       -0.66023       -1.44929
H          5.31948       -0.01099       -1.99969
H          6.77858        1.00956       -2.01294
