72
-98.09347955
Fe        -0.00494        2.81183       -0.02356
P          1.86162       -0.08048        0.03827
P         -1.85924       -0.09358       -0.06336
C          1.42911        1.58687        0.66792
C          0.46992        1.86899        1.72287
C          0.44624        3.30421        1.94275
C          1.38857        3.90635        1.01651
C          2.03294        2.84527        0.26045
C         -1.40593        1.56384       -0.71098
C         -2.00861        2.83357       -0.33521
C         -1.39604        3.88030       -1.13601
C         -0.41883        3.25725       -2.00984
C         -0.43911        1.82610       -1.76325
C          3.17972       -0.73866        1.15593
C          4.42615       -0.02650        0.60758
C          2.90555        0.06377       -1.48982
C          4.35146        0.15066       -0.93766
C         -3.17359       -0.74085       -1.19461
C         -4.41840       -0.01535       -0.66056
C         -2.91998        0.09298        1.45137
C         -4.36193        0.15164        0.88548
H         -0.12034        1.12761        2.26057
H         -0.17381        3.83417        2.66905
H          1.61815        4.97185        0.94244
H          2.81127        2.96723       -0.49544
H         -2.80225        2.96801        0.40293
H          0.15967        1.07617       -2.27901
Cl         1.55216       -3.12210        0.34176
Cl        -1.61061       -3.05471       -0.21150
Pd         0.01236       -1.50501        0.04601
H          3.25990       -1.81772        0.98499
C          2.86367       -0.45743        2.61898
H          2.61438        0.99301       -1.99385
C          2.70943       -1.13085       -2.42374
H          5.34022       -0.56658        0.89947
H          4.50110        0.95875        1.09023
H          4.82093        1.09905       -1.23819
H          4.95602       -0.63075       -1.41851
H         -1.63754        4.94466       -1.09627
H          0.20131        3.77048       -2.74798
H          2.78643        0.62821        2.76397
H          3.54395       -1.16411       -3.13834
H         -3.26812       -1.81881       -1.02455
C         -2.84154       -0.46542       -2.65541
H         -2.63836        1.04283        1.92132
C         -2.72835       -1.06151        2.43580
H         -5.33493       -0.54275       -0.96757
H         -4.47456        0.97347       -1.13827
H         -4.85607        1.08614        1.18983
H         -4.95252       -0.64814        1.35314
H         -2.75219        0.61905       -2.80166
H         -2.79702       -2.00637        1.88071
C          3.89163       -1.04573        3.57324
H          3.96534       -2.12811        3.45229
H          4.88512       -0.63266        3.39007
H          3.64158       -0.84762        4.61799
C          1.39481       -1.12113       -3.18815
H          1.30949       -0.23340       -3.81758
H          1.29564       -1.99258       -3.83936
H          0.53886       -1.12654       -2.51456
C         -3.86685       -1.04465       -3.61804
H         -4.85752       -0.62063       -3.44495
H         -3.60507       -0.85121       -4.66080
H         -3.95331       -2.12595       -3.49585
C         -1.43054       -1.00527        3.22630
H         -1.36621       -0.08926        3.81650
H         -1.33829       -1.84556        3.91822
H         -0.56006       -1.03343        2.57236
H          1.86443       -0.85094        2.85068
H          2.79994       -2.05181       -1.83243
H         -1.84439       -0.86942       -2.87743
H         -3.57677       -1.07605        3.13443
