58
-89.86490583
P          1.64789        0.27093        0.79856
C          2.89542        1.49253        0.38392
C          2.52814        2.81306        0.26285
C          3.47897        3.76170       -0.06951
C          4.78946        3.37882       -0.27802
C          5.15196        2.05173       -0.15631
C          4.19922        1.10544        0.17543
H          4.46433        0.06448        0.26644
H          1.49881        3.09492        0.42077
C          2.29382       -1.39575        0.58025
C          2.62816       -2.18381        1.65892
C          3.08351       -3.47363        1.45340
C          3.20708       -3.96599        0.16928
C          2.88389       -3.16949       -0.91064
C          2.42891       -1.88169       -0.70022
H          2.17800       -1.24295       -1.53099
H          2.53846       -1.79205        2.65862
C          1.18558        0.58207        2.55117
C          0.07225       -0.31116        3.07617
C         -1.31340        0.14169        2.65870
P         -1.68722        0.01386        0.86194
C         -1.93519       -1.70734        0.39268
C         -3.14329       -2.15591       -0.09097
C         -3.28873       -3.48008       -0.46276
C         -2.21931       -4.34741       -0.35675
C         -1.00354       -3.89098        0.11119
C         -0.86451       -2.56677        0.48326
H          0.09261       -2.18811        0.79598
H         -3.96385       -1.46676       -0.19737
C         -3.16935        1.01042        0.62654
C         -4.35077        0.60124        1.20425
C         -5.49174        1.37061        1.06162
C         -5.43962        2.55314        0.35097
C         -4.24912        2.97098       -0.20951
C         -3.11045        2.19948       -0.06435
H         -2.17491        2.51858       -0.49472
H         -4.37440       -0.31332        1.77570
Pd        -0.07333        0.48056       -0.75314
Cl         1.55121        0.79831       -2.27654
Cl        -1.75303        0.61097       -2.23523
H         -2.08954       -0.43460        3.16823
H         -1.46881        1.18719        2.93285
H          0.23893       -1.34636        2.75535
H          0.12097       -0.34342        4.17590
H          2.10673        0.45461        3.12516
H          0.90919        1.63451        2.63743
H          3.19531        4.79648       -0.16946
H          6.17362        1.75239       -0.32325
H          3.34155       -4.09380        2.29612
H          2.98405       -3.54901       -1.91419
H         -4.23434       -3.83221       -0.84113
H         -0.16007       -4.55860        0.17485
H         -6.41837        1.04808        1.50733
H         -4.20602        3.89589       -0.76086
H          5.53015        4.11683       -0.53962
H          3.56055       -4.97164        0.00974
H         -2.33079       -5.37859       -0.64989
H         -6.32802        3.15276        0.23721
