59
-75.81254685
Cl         1.62017        0.55922        2.30708
P          1.61686       -0.04500       -0.85372
P         -1.65173       -0.05307       -0.78590
C          0.57943        0.40443       -2.31189
H          0.32334        1.46502       -2.25316
H          1.17409        0.25776       -3.21880
C         -0.65944       -0.44583       -2.29524
H         -0.39748       -1.50668       -2.27094
H         -1.29002       -0.28162       -3.17478
C          2.50935       -1.62233       -1.26048
H          2.30214       -1.78116       -2.32744
C          3.07892        1.06967       -0.61759
H          3.21133        1.16506        0.46707
C         -2.97112       -1.31676       -0.48502
H         -3.33417       -1.13635        0.53447
C         -2.77962        1.36338       -1.20168
H         -2.30968        1.90442       -2.03204
C          3.99596       -1.26728       -1.07887
H          4.33199       -1.59302       -0.08718
H          4.61380       -1.83106       -1.79410
C          4.23809        0.25855       -1.22186
H          4.33441        0.51790       -2.28528
H          5.19278        0.55163       -0.75881
C         -4.03460       -0.88291       -1.50691
H         -3.78853       -1.34027       -2.47636
H         -5.02038       -1.29024       -1.23283
C         -4.08857        0.66624       -1.65405
H         -4.91853        1.05611       -1.04864
H         -4.33485        0.94561       -2.68916
C          2.02323       -2.82734       -0.45727
H          2.51873       -3.73219       -0.83593
H          0.95675       -2.97743       -0.66973
C          2.89681        2.44886       -1.23963
H          3.86183        2.97464       -1.23390
H          2.64048        2.32989       -2.30031
C         -2.50593       -2.76274       -0.61896
H         -3.38624       -3.41588       -0.69634
H         -1.97662       -2.88393       -1.57196
C         -2.99804        2.30187       -0.01690
H         -3.85171        2.95797       -0.23818
H         -3.30960        1.70423        0.85005
C          2.23984       -2.72425        1.04650
H          3.29853       -2.74316        1.30834
H          1.76536       -3.54884        1.58370
H          1.83086       -1.79791        1.44805
C          1.84741        3.28519       -0.52695
H          1.72290        4.26913       -0.98480
H          2.10973        3.43898        0.52151
H          0.87700        2.79064       -0.54235
C         -1.63360       -3.21066        0.54311
H         -2.18057       -3.16540        1.48678
H         -0.76227       -2.56611        0.65527
H         -1.27448       -4.23481        0.41910
C         -1.78727        3.15007        0.33559
H         -2.00266        3.85354        1.14312
H         -0.95244        2.53372        0.66576
H         -1.44736        3.73075       -0.52398
Cl        -1.62824        0.09508        2.35036
Pd         0.01338        0.08094        0.81779
