105
-153.07179240
Cl        -0.01794        1.85304        3.05244
Pd        -0.61047        1.13682        0.99432
P         -1.23652        0.48884       -1.15705
N         -0.94272       -1.07047       -1.90847
C          0.08179       -1.97887       -1.62687
C          0.32172       -2.47817       -0.31910
C          1.34458       -3.42784       -0.11974
C          1.56090       -3.98637        1.26688
C          2.44063       -5.24506        1.31908
C          3.66565       -5.09547        0.41271
C          3.23639       -4.86496       -1.04388
C          2.11691       -3.86596       -1.19894
C          1.84037       -3.38756       -2.47323
C          0.84127       -2.47480       -2.68661
H          0.64376       -2.11178       -3.68011
H          2.42934       -3.74256       -3.30199
H          4.09278       -4.53145       -1.64397
H          4.26823       -4.24485        0.75498
H          2.74538       -5.46656        2.35169
H          2.00838       -3.20190        1.88783
C         -0.62205       -2.18915        0.78727
C         -0.15081       -1.60184        1.99516
C         -1.02961       -1.51220        3.07956
C         -2.32603       -1.94466        2.97572
C         -2.80838       -2.51010        1.80184
C         -4.24159       -2.98775        1.78382
C         -4.74687       -3.45319        0.40770
C         -3.65815       -4.21973       -0.34794
C         -2.41984       -3.33542       -0.55146
C         -1.95170       -2.64727        0.70712
H         -1.59561       -3.93163       -0.96252
H         -4.03719       -4.59276       -1.30998
H         -5.05090       -2.58292       -0.18675
H         -4.88230       -2.18492        2.17031
H         -2.99098       -1.84939        3.81749
H         -0.68312       -1.05700        3.99076
N          1.12586       -1.03216        2.10538
P          1.55124        0.17476        0.89303
C          2.65924       -0.40198       -0.38353
C          2.50315        0.07448       -1.66043
C          3.39646       -0.30169       -2.64645
C          4.46202       -1.14110       -2.34855
C          4.61195       -1.59560       -1.04466
C          3.71503       -1.21919       -0.06089
H          3.83122       -1.55674        0.95669
H          5.43359       -2.24868       -0.80520
C          5.39964       -1.58339       -3.41695
H          3.26710        0.05178       -3.65502
H          1.67978        0.73248       -1.87710
C          2.39255        1.59775        1.59799
C          3.17501        1.46605        2.71957
C          3.82299        2.57362        3.23579
C          3.70008        3.81419        2.62395
C          2.90792        3.92401        1.48901
C          2.26122        2.81593        0.97323
H          1.64684        2.89750        0.08982
H          2.79651        4.88359        1.01372
C          4.36989        5.01330        3.19915
H          4.42721        2.48109        4.12205
H          3.27964        0.50012        3.18619
H          1.31328       -0.58172        2.99175
H         -1.22244       -0.95701       -2.87432
C         -0.52078        1.82797       -2.11377
C         -0.56704        3.10354       -1.60193
C          0.01443        4.14703       -2.29683
C          0.64382        3.91935       -3.51309
C          0.65341        2.63038       -4.02934
C          0.07122        1.58840       -3.33133
H          0.09467        0.58558       -3.72415
H          1.12407        2.44707       -4.98018
C          1.25690        5.04484       -4.27118
H         -0.01913        5.14666       -1.89839
H         -1.07292        3.27636       -0.66485
C         -3.01925        0.69525       -1.17658
C         -3.60947        1.48341       -2.13590
C         -4.98332        1.64322       -2.14522
C         -5.77462        1.01044       -1.19599
C         -5.15872        0.22449       -0.23221
C         -3.78559        0.06203       -0.23019
H         -3.30166       -0.54278        0.51781
H         -5.76095       -0.25092        0.52291
C         -7.25045        1.20714       -1.18114
H         -5.44921        2.26757       -2.88834
H         -2.99363        1.97653       -2.87077
Cl        -2.50068        2.34133        1.21792
H          2.91905       -5.81510       -1.48990
H          1.85332       -6.11282        0.99350
H          4.32188       -5.97355        0.49449
H          0.58301       -4.19511        1.71886
H         -3.37713       -5.11206        0.22537
H         -2.63571       -2.57026       -1.30588
H         -4.33831       -3.80822        2.50496
H         -5.65308       -4.06650        0.51147
H          6.39397       -1.77798       -3.01262
H          5.04295       -2.49991       -3.88904
H          5.50054       -0.82249       -4.19212
H          5.29271        4.74074        3.71311
H          4.62521        5.73333        2.42042
H          3.71855        5.51188        3.91822
H          0.52447        5.51201       -4.93086
H          1.63950        5.81153       -3.59595
H          2.09030        4.69893       -4.88430
H         -7.76249        0.31251       -0.82386
H         -7.52324        2.03556       -0.52603
H         -7.62930        1.42866       -2.17985
