87
-129.18558521
P         -1.52849       -0.29317       -0.38060
P          1.68944        0.38320        0.09193
C         -1.17794        0.93695       -1.64184
C          1.55949       -0.72175       -1.33630
C         -0.11392        0.73487       -2.51160
C          0.15489        1.70935       -3.49372
C         -0.65675        2.82915       -3.57215
C         -1.71111        3.00746       -2.70129
C         -1.96868        2.05587       -1.73448
C          2.29317       -1.88175       -1.25185
C          2.19417       -2.84977       -2.23162
C          1.33809       -2.65772       -3.29324
C          0.57990       -1.50463       -3.39747
C          0.70141       -0.50463       -2.41303
Cl         1.12766        0.12088        3.26697
Cl        -1.54886       -1.62247        2.56966
H         -2.32933        3.88736       -2.77166
H         -2.79387        2.18389       -1.05398
H          2.94431       -2.03684       -0.40735
H          2.77238       -3.75624       -2.15776
H         -0.44896        3.57170       -4.32379
H          1.24242       -3.41614       -4.05173
C         -2.23648       -4.33487       -2.32557
C         -1.32693       -4.23553       -1.28154
C         -1.14496       -2.99804       -0.67664
C         -1.83325       -1.89490       -1.12470
C         -2.72538       -1.99822       -2.16594
C         -2.93261       -3.22633       -2.76637
H         -2.39462       -5.29173       -2.79316
C         -0.58202       -5.42808       -0.79487
H         -0.45400       -2.89960        0.14353
H         -3.24555       -1.11752       -2.50893
H         -3.63163       -3.31589       -3.58168
C         -5.11662        1.04176        2.09245
C         -5.18630       -0.12812        1.36198
C         -4.10303       -0.53506        0.60641
C         -2.96217        0.23194        0.58194
C         -2.88967        1.39556        1.31229
C         -3.96491        1.81654        2.08420
H         -5.95994        1.36103        2.68077
H         -6.08256       -0.72615        1.38377
H         -4.13939       -1.45218        0.04188
H         -1.99103        1.98732        1.28249
C         -3.88151        3.08440        2.85905
C          5.69479       -0.24505        2.16581
C          5.50133        0.85368        1.35218
C          4.28086        1.04628        0.73235
C          3.26491        0.13972        0.92789
C          3.45708       -0.95678        1.73645
C          4.67335       -1.16087        2.37656
H          6.64505       -0.39849        2.64825
H          6.30008        1.56109        1.20038
H          4.11500        1.90147        0.09776
H          2.65017       -1.65416        1.89048
C          4.87589       -2.35346        3.24352
C          0.87697        4.79562       -0.62853
C          1.73466        4.11655       -1.47186
C          1.99993        2.77738       -1.25431
C          1.40186        2.13100       -0.19873
C          0.57622        2.81381        0.66489
C          0.29414        4.15832        0.45816
H          0.65533        5.83403       -0.80693
H          2.18617        4.62561       -2.30751
H          2.65271        2.22691       -1.91281
H          0.17337        2.30673        1.52493
C         -0.64493        4.88232        1.35707
Pd        -0.05685       -0.39216        1.43469
C          1.29306        1.56466       -4.44312
C         -0.35665       -1.35782       -4.54667
H          0.93601        1.31285       -5.44247
H          1.86021        2.49389       -4.51449
H          1.98298        0.78250       -4.12436
H         -0.90690       -2.28392       -4.71897
H         -1.09027       -0.57114       -4.36775
H          0.18472       -1.11431       -5.46157
H         -0.45404       -6.16494       -1.58907
H          0.41101       -5.15009       -0.43829
H         -1.11359       -5.90696        0.02854
H         -4.02131        3.94752        2.20668
H         -4.64415        3.12404        3.63797
H         -2.90872        3.18110        3.34345
H          5.12373       -3.23076        2.64438
H          5.68581       -2.19179        3.95617
H          3.97342       -2.57834        3.81390
H         -0.64282        4.44959        2.35854
H         -0.36946        5.93375        1.44986
H         -1.66405        4.83308        0.97085
