64
-97.21384609
Cl        -1.58905       -1.27993       -2.57663
Cl         1.51963       -1.50788       -2.94687
P          1.94277       -0.65552        0.26102
C          2.15765       -2.32555        1.03151
C          3.71737       -0.25615       -0.10830
P         -1.25667       -0.09086        0.42619
C          1.29594        0.57644        1.44376
C         -0.12360        0.86738        1.50384
C         -0.34460        1.93360        2.47185
C          0.96585        2.39504        2.89533
C          1.97605        1.54823        2.28361
H         -1.30784        2.32168        2.80793
H          1.15717        3.19716        3.61206
Pd         0.18327       -0.94612       -1.23707
H          3.05595        1.62257        2.42594
C         -5.00893        2.17861       -0.85560
C         -4.05971        2.81798       -0.08408
C         -2.91963        2.14064        0.30632
C         -2.72329        0.83315       -0.07849
C         -3.67322        0.19463       -0.84305
C         -4.81775        0.86539       -1.23501
H         -5.89867        2.70437       -1.16177
H         -4.20606        3.84333        0.21380
H         -2.17550        2.63532        0.90419
H         -3.51203       -0.82837       -1.14100
H         -5.55603        0.36335       -1.83855
C         -2.61480       -3.89409        2.50601
C         -2.35481       -2.75777        3.24756
C         -1.94911       -1.59787        2.61171
C         -1.80505       -1.58674        1.24376
C         -2.06918       -2.71331        0.50016
C         -2.47454       -3.87398        1.13196
H         -2.93056       -4.79813        3.00073
H         -2.46618       -2.77381        4.31931
H         -1.73680       -0.70240        3.17412
H         -1.96356       -2.67281       -0.57211
H         -2.68145       -4.75887        0.55279
C          4.03559       -0.36757       -1.58358
H          3.89721        0.76613        0.24940
C          4.47852       -1.28856        0.74656
H          4.68210       -0.87200        1.74403
C          3.66736       -2.60397        0.89278
H          5.46343       -1.48679        0.29886
C          1.67595       -2.30689        2.46595
H          1.56593       -3.03267        0.43404
H          4.01674       -3.18059        1.76130
H          3.85192       -3.24499        0.01852
H          2.23963       -1.57673        3.05013
H          0.62173       -2.03072        2.52731
H          1.79760       -3.28187        2.94379
H          3.81750       -1.37364       -1.94547
H          3.44632        0.32882       -2.18180
H          5.09091       -0.16721       -1.78125
Fe         0.80986        2.48236        0.86557
C          2.17773        3.20210       -0.45231
C          1.34841        4.27285        0.07620
C         -0.03339        3.97758       -0.26259
C         -0.05208        2.71839       -0.98561
C          1.31226        2.25178       -1.12455
H          3.26770        3.14941       -0.39759
H          1.70427        5.15770        0.60942
H         -0.89974        4.60207       -0.03303
H         -0.93102        2.23968       -1.42183
H          1.62354        1.36402       -1.67647
