171
-217.84286803
P         -1.65200        0.42428       -0.39608
P          1.59055       -0.37464       -0.36846
C         -0.90974        1.40807       -1.70261
C          0.87805       -1.30543       -1.72546
C         -0.07515        0.82057       -2.64755
C          0.58881        1.65039       -3.57205
C          0.36336        3.01647       -3.54043
C         -0.49336        3.57542       -2.61605
C         -1.12164        2.76541       -1.69091
C          1.07812       -2.66321       -1.77455
C          0.50611       -3.41213       -2.78399
C         -0.27485       -2.79129       -3.73584
C         -0.48698       -1.42264       -3.70375
C          0.11043       -0.65679       -2.68528
Cl         1.52444        0.49046        2.81170
Cl        -1.57645       -0.33978        2.84656
C         -1.31034       -0.77359       -4.76021
C          1.54570        1.09677       -4.56976
H         -0.66369        4.63960       -2.60666
H         -1.77926        3.19564       -0.95311
H          1.68803       -3.13909       -1.02396
H          0.67127       -4.47621       -2.82816
H          0.87427        3.64527       -4.25011
H         -0.72691       -3.37249       -4.52174
C         -3.91736       -3.30688       -1.58491
C         -2.92214       -3.39317       -0.61863
C         -2.21982       -2.23739       -0.30643
C         -2.50462       -1.05353       -0.93974
C         -3.49475       -0.98199       -1.88901
C         -4.22849       -2.11328       -2.22767
H         -4.47490       -4.18956       -1.83139
H         -1.46115       -2.25405        0.45755
H         -3.71240       -0.03156       -2.34692
C         -4.33366        2.79226        2.39230
C         -4.88506        1.75267        1.65375
C         -4.05193        1.06044        0.78360
C         -2.73125        1.41212        0.65300
C         -2.20570        2.44712        1.38622
C         -2.99610        3.15272        2.28330
H         -4.96550        3.31954        3.08185
H         -4.42135        0.22506        0.21588
H         -1.16125        2.68727        1.27939
C          4.25376       -2.92896        2.27710
C          2.89751       -3.22773        2.20681
C          2.10601       -2.45855        1.36379
C          2.64686       -1.41687        0.65217
C          3.98311       -1.12228        0.75328
C          4.81815       -1.87732        1.56430
H          4.88443       -3.52717        2.90577
H          1.05355       -2.66232        1.26848
H          4.37951       -0.28754        0.20249
C          3.99580        3.22082       -1.66871
C          2.94847        3.40764       -0.77531
C          2.21264        2.29237       -0.39530
C          2.50773        1.05846       -0.91795
C          3.53330        0.89198       -1.81572
C          4.30721        1.97835       -2.20663
H          4.60121        4.06674       -1.93715
H          1.41119        2.37239        0.31843
H          3.73132       -0.09675       -2.19401
Pd        -0.03395        0.01010        1.25108
C         -3.51249       -5.85197       -0.30560
C         -2.60573       -4.68927        0.14063
C         -2.81832       -4.45486        1.64851
C         -1.14252       -5.08422       -0.12093
H         -3.38239       -6.06621       -1.36625
H         -3.27352       -6.76131        0.24579
H         -4.56241       -5.62271       -0.12422
H         -2.17117       -3.66295        2.02282
H         -3.84890       -4.16398        1.85062
H         -2.60342       -5.35841        2.21870
H         -0.87865       -5.99006        0.42450
H         -0.97971       -5.26959       -1.18195
H         -0.46150       -4.29332        0.18867
C         -4.84551       -1.50189       -4.58717
C         -5.38373       -1.99972       -3.23510
C         -6.42591       -1.00294       -2.69624
C         -6.08110       -3.35536       -3.46230
H         -4.11646       -2.20413       -4.98959
H         -5.65115       -1.40253       -5.31448
H         -4.36544       -0.52925       -4.48855
H         -6.81439       -1.33783       -1.73482
H         -5.99216       -0.01309       -2.55904
H         -7.26609       -0.90625       -3.38364
H         -5.38308       -4.09494       -3.85425
H         -6.50852       -3.73771       -2.53552
H         -6.89362       -3.25570       -4.18198
C         -7.25012        2.59847        1.60227
C         -6.35784        1.36853        1.85407
C         -6.55417        0.86802        3.29627
C         -6.78906        0.25207        0.88357
H         -8.30436        2.34295        1.70802
H         -7.03166        3.40043        2.30618
H         -7.09624        2.98521        0.59501
H         -7.58785        0.56903        3.46912
H         -5.91499        0.00770        3.49411
H         -6.30401        1.64285        4.02010
H         -7.84128        0.00344        1.02115
H         -6.65559        0.56676       -0.15083
H         -6.21238       -0.65815        1.04729
C         -1.99509        5.44210        2.18148
C         -2.36895        4.27913        3.11612
C         -1.10586        3.74913        3.82436
C         -3.34003        4.80215        4.19208
H         -1.51820        6.25157        2.73383
H         -1.30768        5.11286        1.40436
H         -2.88207        5.84253        1.69089
H         -1.34832        2.89017        4.44963
H         -0.34682        3.43474        3.10998
H         -0.66328        4.51614        4.45944
H         -2.86528        5.57298        4.79907
H         -4.22884        5.24253        3.74087
H         -3.65178        3.99921        4.85988
C          3.16665       -4.81980        4.17089
C          2.27312       -4.39198        2.98970
C          2.09211       -5.58657        2.03885
C          0.90273       -3.97056        3.56009
H          4.11123       -5.23790        3.82463
H          3.38151       -3.97249        4.82187
H          2.67460       -5.58549        4.77057
H          1.46984       -5.31445        1.18762
H          3.05452       -5.92103        1.65197
H          1.62079       -6.42636        2.54911
H          0.48660       -4.75389        4.19324
H          0.99666       -3.06554        4.15993
H          0.18085       -3.77599        2.76914
C          6.45185       -0.06249        2.13230
C          6.30821       -1.51599        1.64197
C          6.93451       -1.65323        0.24181
C          7.07002       -2.43727        2.61355
H          5.98265        0.06186        3.10800
H          7.50130        0.21703        2.22307
H          5.98004        0.63771        1.44384
H          7.99642       -1.40893        0.26287
H          6.82896       -2.67256       -0.12903
H          6.45306       -0.98702       -0.47287
H          8.12359       -2.16204        2.66113
H          6.66407       -2.36417        3.62233
H          7.01578       -3.47733        2.29250
C          3.84993        5.24194        0.66974
C          2.66398        4.80413       -0.20743
C          1.38554        4.81149        0.65148
C          2.47426        5.80287       -1.36471
H          3.67427        6.22747        1.10061
H          4.00352        4.53764        1.48722
H          4.77178        5.28815        0.09084
H          1.49191        4.16219        1.52001
H          1.16935        5.81549        1.01629
H          0.52801        4.47524        0.06961
H          1.66543        5.48238       -2.02033
H          2.22884        6.79517       -0.98667
H          3.37736        5.89203       -1.96695
C          5.43703        2.84753       -4.28428
C          5.52100        1.82536       -3.13421
C          5.59148        0.41258       -3.74677
C          6.80210        2.07257       -2.31736
H          4.51943        2.71521       -4.85602
H          5.45497        3.87084       -3.91204
H          6.27752        2.73155       -4.96840
H          5.72296       -0.34577       -2.97542
H          4.68506        0.18228       -4.30614
H          6.43451        0.33012       -4.43264
H          6.81180        3.07804       -1.89765
H          6.87481        1.36601       -1.49086
H          7.69029        1.95913       -2.93866
H         -0.67960       -0.36416       -5.54990
H          2.49893        1.62322       -4.51866
H         -1.90561        0.04216       -4.34749
H         -1.99297       -1.48735       -5.22150
H          1.15892        1.20367       -5.58420
H          1.74602        0.03939       -4.39265
