72
-98.09726068
Fe         0.00416        2.78138       -0.08921
P          1.86169       -0.06544       -0.05715
P         -1.86970       -0.05808        0.01762
C          1.42131        1.57921        0.63450
C          0.41857        1.83111        1.65390
C          0.35500        3.26359        1.88291
C          1.34238        3.90078        1.03122
C          2.00090        2.86033        0.25962
C         -1.40366        1.53460       -0.76740
C         -2.00031        2.83409       -0.50030
C         -1.27850        3.81837       -1.28969
C         -0.29571        3.12651       -2.10420
C         -0.36818        1.71534       -1.77131
C          3.22689       -0.75965        0.99661
C          4.41362        0.10170        0.53127
C          2.91128        0.19897       -1.57265
C          4.32323        0.44475       -0.98578
C         -3.20133       -0.87980       -0.99743
C         -4.48923       -0.67758       -0.16970
C         -2.87544        0.29160        1.54420
C         -4.29954        0.36647        0.96044
H         -0.18795        1.07349        2.14607
H         -0.30190        3.76952        2.59417
H          1.55492        4.97093        0.98126
H          2.79445        3.01082       -0.47514
H         -2.80796        3.03850        0.20513
H          0.27013        0.92951       -2.17351
Cl         1.60194       -3.03257       -0.27070
Cl        -1.60003       -3.03048        0.47919
Pd        -0.00952       -1.49072        0.06458
H          3.38120       -1.80120        0.69184
C          2.94520       -0.68752        2.49855
H          2.53135        1.09237       -2.08212
C          2.89003       -0.99740       -2.52235
H          5.36714       -0.39499        0.76946
H          4.41342        1.02974        1.12184
H          4.63953        1.48338       -1.16264
H          5.04578       -0.16907       -1.54163
H         -1.48191        4.89170       -1.31064
H          0.39142        3.58576       -2.81842
H          3.89953       -0.62452        3.03983
H          3.68544       -0.87132       -3.27023
H         -2.94312       -1.94395       -1.05547
C         -3.30290       -0.31459       -2.41208
H         -2.55364        1.25932        1.94752
C         -2.76096       -0.79659        2.61233
H         -4.80718       -1.63522        0.26741
H         -5.31102       -0.37585       -0.83426
H         -4.49081        1.37482        0.56468
H         -5.04142        0.21487        1.75890
H         -4.26072       -0.62066       -2.85544
H         -2.92216       -1.77040        2.13265
C          2.14723       -1.87589        3.01360
H          1.21948       -2.00418        2.45807
H          2.70830       -2.80538        2.89950
H          1.89059       -1.77392        4.07042
C          1.56302       -1.21700       -3.22784
H          1.27413       -0.34214       -3.81307
H          1.60030       -2.06855       -3.91110
H          0.76564       -1.41667       -2.51315
C         -2.16321       -0.75772       -3.31308
H         -1.20139       -0.46522       -2.89701
H         -2.14485       -1.84369       -3.42363
H         -2.23514       -0.32435       -4.31318
C         -1.44753       -0.79643        3.37350
H         -0.60440       -0.93384        2.69911
H         -1.29527        0.14523        3.90434
H         -1.40351       -1.59888        4.11349
H          2.42825        0.25512        2.71904
H          3.16891       -1.89506       -1.95524
H         -3.34946        0.78056       -2.35300
H         -3.59290       -0.68752        3.32191
