171
-217.83894590
P         -1.65503        0.77314        0.27862
P          1.47130       -0.24419       -0.34360
C         -0.89633        1.85383       -0.95495
C          0.51753       -0.90870       -1.72095
C         -0.29300        1.40457       -2.12338
C          0.36193        2.33807       -2.94890
C          0.36708        3.67544       -2.59013
C         -0.24469        4.10413       -1.43197
C         -0.86717        3.18465       -0.61030
C          0.58924       -2.24202       -2.04053
C         -0.15645       -2.74596       -3.08792
C         -0.97485       -1.90476       -3.81347
C         -1.06000       -0.55493       -3.51082
C         -0.28225       -0.04270       -2.45522
Cl         2.24337        1.13436        2.55181
Cl        -0.83620        0.66153        3.46834
C         -1.95182        0.34059       -4.29879
C          1.07781        1.92319       -4.18659
H         -0.22811        5.14735       -1.16188
H         -1.32636        3.50055        0.31498
H          1.23242       -2.89067       -1.47154
H         -0.10286       -3.79405       -3.33336
H          0.87082        4.38345       -3.22660
H         -1.55577       -2.29651       -4.63102
C         -3.03507       -3.43852       -0.68718
C         -3.67705       -2.35528       -1.27504
C         -3.19692       -1.08443       -0.98722
C         -2.11892       -0.91189       -0.15433
C         -1.50272       -1.99602        0.42707
C         -1.95400       -3.28526        0.17342
H         -3.40178       -4.42648       -0.88740
H         -3.68955       -0.21645       -1.39057
H         -0.67688       -1.83913        1.09766
C         -5.50177        2.79186        1.57946
C         -4.68092        2.24404        2.55916
C         -3.49861        1.64315        2.15288
C         -3.15441        1.59540        0.82732
C         -3.97514        2.14181       -0.12821
C         -5.16899        2.75459        0.22971
H         -6.42085        3.26006        1.87462
H         -2.82742        1.21835        2.87682
H         -3.67760        2.09433       -1.16286
C          3.79191       -3.65856        1.58226
C          4.00290       -3.34190        0.24748
C          3.28031       -2.28431       -0.29021
C          2.36693       -1.59292        0.46868
C          2.17731       -1.92504        1.78982
C          2.89700       -2.95607        2.37733
H          4.34428       -4.47155        2.01649
H          3.42409       -1.99520       -1.31582
H          1.47258       -1.36924        2.37826
C          4.58151        2.58401       -2.03799
C          4.30702        1.39818       -2.70858
C          3.34199        0.55608       -2.16787
C          2.69734        0.88816       -1.00122
C          2.98137        2.06421       -0.35639
C          3.92402        2.94423       -0.86761
H          5.34067        3.23174       -2.43353
H          3.07324       -0.36044       -2.66369
H          2.48090        2.28751        0.56851
Pd         0.30774        0.63879        1.53106
C         -6.13490       -1.91183       -1.35349
C         -4.94542       -2.50877       -2.12744
C         -5.24826       -3.98696       -2.43968
C         -4.77354       -1.76139       -3.46170
H         -7.05770       -1.99586       -1.92716
H         -6.27660       -2.43018       -0.40537
H         -5.97004       -0.85754       -1.13421
H         -5.44927       -4.54978       -1.52843
H         -6.12729       -4.07467       -3.07815
H         -4.41255       -4.45521       -2.95963
H         -4.61141       -0.69630       -3.30337
H         -3.92270       -2.15735       -4.01430
H         -5.65984       -1.87068       -4.08651
C         -1.41900       -4.25071        2.41945
C         -1.31075       -4.47736        0.90017
C          0.16788       -4.59763        0.49610
C         -2.01318       -5.80565        0.55775
H         -2.46033       -4.12715        2.71606
H         -1.01029       -5.09630        2.97177
H         -0.87801       -3.35649        2.72423
H          0.71307       -3.68730        0.73428
H          0.65207       -5.42228        1.01865
H          0.26087       -4.77924       -0.57401
H         -1.54974       -6.63560        1.09114
H         -3.06510       -5.77823        0.84151
H         -1.94581       -6.02208       -0.50829
C         -6.37124        2.98538        4.31460
C         -5.02659        2.27971        4.05471
C         -3.92084        3.03909        4.81181
C         -5.11982        0.83737        4.58667
H         -7.18862        2.47043        3.81012
H         -6.59972        3.00105        5.38023
H         -6.34568        4.01836        3.96810
H         -2.95575        2.54560        4.70314
H         -3.82136        4.05508        4.43044
H         -4.14638        3.09793        5.87636
H         -5.38172        0.82764        5.64449
H         -5.88027        0.27561        4.04461
H         -4.17214        0.31208        4.47363
C         -6.48998        2.23624       -1.83683
C         -6.05998        3.35354       -0.86778
C         -5.26523        4.42701       -1.63523
C         -7.32604        4.00812       -0.28277
H         -7.13137        2.62905       -2.62554
H         -5.62745        1.76911       -2.31092
H         -7.04289        1.46039       -1.30783
H         -4.92816        5.21263       -0.95928
H         -4.38577        4.00119       -2.11701
H         -5.87852        4.88752       -2.40955
H         -7.94300        4.43220       -1.07495
H         -7.93359        3.27865        0.25252
H         -7.06911        4.81542        0.40283
C          5.12122       -3.60798       -2.02319
C          4.99618       -4.15994       -0.58908
C          4.50645       -5.61732       -0.66613
C          6.38599       -4.10970        0.07209
H          4.16539       -3.64885       -2.54535
H          5.46827       -2.57492       -2.01522
H          5.83692       -4.19188       -2.60174
H          5.18241       -6.22536       -1.26710
H          4.44452       -6.06595        0.32475
H          3.51549       -5.66637       -1.11748
H          6.73164       -3.07996        0.16160
H          6.36743       -4.54464        1.07056
H          7.11819       -4.66156       -0.51714
C          1.74162       -2.38317        4.57411
C          2.75025       -3.30919        3.86447
C          4.11669       -3.15253        4.55728
C          2.26397       -4.76294        3.99896
H          2.05478       -1.34110        4.51184
H          0.74850       -2.46982        4.13585
H          1.65764       -2.63931        5.62999
H          4.85855       -3.82512        4.12849
H          4.48660       -2.13311        4.44897
H          4.04215       -3.37366        5.62184
H          2.13576       -5.03637        5.04612
H          1.30734       -4.89638        3.49634
H          2.97377       -5.46067        3.55614
C          4.50671       -0.21585       -4.66679
C          5.11323        1.01178       -3.95782
C          6.55166        0.67252       -3.52885
C          5.13705        2.18192       -4.96055
H          5.06230       -0.45176       -5.57429
H          4.53841       -1.09756       -4.02757
H          3.47076       -0.03236       -4.95051
H          7.03036        1.52835       -3.05375
H          6.55642       -0.15113       -2.81509
H          7.15761        0.38086       -4.38649
H          5.62146        3.06164       -4.53949
H          5.68360        1.90736       -5.86267
H          4.12690        2.46289       -5.25542
C          4.72771        3.91708        1.29720
C          4.21109        4.25045       -0.11487
C          2.91092        5.06925       -0.01043
C          5.26987        5.10497       -0.83714
H          5.63437        3.31499        1.24286
H          4.95734        4.82546        1.85368
H          3.98850        3.35528        1.86698
H          2.52160        5.29880       -1.00197
H          2.14099        4.52265        0.53295
H          3.08253        6.01037        0.51149
H          5.45258        6.03299       -0.29550
H          6.21904        4.57453       -0.91066
H          4.94116        5.36856       -1.84230
H         -2.69474       -0.22796       -4.85932
H          2.10316        2.29336       -4.17481
H         -1.37995        0.92974       -5.01611
H         -2.48544        1.03227       -3.64473
H          0.58823        2.32428       -5.07522
H          1.12081        0.83793       -4.28374
