111
-148.54607401
P         -2.76940        1.80342       -0.32253
P          0.12704        0.59683        0.18143
C         -1.84786        2.23656        1.18442
C         -0.57214        1.75037        1.37281
C         -4.02770        3.11955       -0.69213
C         -3.96712        3.58757       -2.12796
C         -2.42444        3.03198        2.15532
H         -3.43334        3.38690        2.02680
C         -1.71496        3.35165        3.30013
H         -2.16640        3.97382        4.05564
C         -0.43190        2.87207        3.47788
H          0.12007        3.11903        4.36981
C          0.13889        2.06299        2.51262
H          1.13252        1.66451        2.64382
Pd        -1.13810        0.92108       -1.72721
Cl        -2.18240        1.69961       -3.54840
Cl         0.39551       -0.14523       -2.97920
C         -5.36020        2.43173       -0.32953
C         -3.89167        0.35221       -0.04964
H         -4.69353        4.37939       -2.32501
H         -2.97455        3.96653       -2.38136
H         -4.18778        2.76283       -2.80743
H         -6.16652        2.83759       -0.95783
H         -5.64015        2.67683        0.70549
H         -3.54707       -0.44895       -0.71813
C         -5.26965        0.88852       -0.48578
C         -3.84861       -0.10644        1.39211
H         -3.81751        3.96045       -0.01838
H         -6.05902        0.39253        0.09767
H         -5.46123        0.61751       -1.53446
H         -2.83837       -0.39463        1.68728
H         -4.16848        0.69506        2.06056
H         -4.50571       -0.96274        1.56146
C         -1.21933       -3.59415        1.33852
C         -0.93312       -3.29413       -0.01772
C         -0.51860       -2.01171       -0.32926
C         -0.33822       -1.06822        0.64664
C         -0.49984       -1.38638        1.96923
C         -0.89806       -2.65575        2.35300
O         -1.86607       -4.81298        1.67469
C         -1.11578       -4.31446       -1.15111
H         -0.33504       -1.72219       -1.34901
H         -0.33097       -0.61782        2.70313
C         -1.01054       -2.97780        3.85071
C          4.66448        0.91155       -0.04919
C          3.86993        1.49640       -1.07160
C          2.49145        1.41909       -0.95661
C          1.90671        0.71799        0.06493
C          2.67109        0.04174        0.98020
C          4.05435        0.08517        0.93132
O          6.04807        1.21278        0.03661
C          4.44999        2.17779       -2.32279
H          1.85433        1.89989       -1.67942
H          2.17049       -0.53133        1.74240
C          4.83584       -0.78313        1.93179
C         -2.54735       -4.20923       -1.69885
C         -0.12533       -4.03239       -2.30408
C         -0.83797       -5.74629       -0.65927
C          0.04460       -2.18464        4.65563
C         -2.40907       -2.58504        4.35072
C         -0.74903       -4.47064        4.12056
C         -3.28543       -4.72505        1.69441
H         -2.74248       -3.20528       -2.07548
H         -2.70588       -4.91304       -2.51544
H         -3.28182       -4.42061       -0.92533
H          0.89635       -3.96896       -1.93071
H         -0.16127       -4.82752       -3.04832
H         -0.35999       -3.10244       -2.81978
H         -0.90589       -6.46210       -1.47809
H          0.16026       -5.81690       -0.22855
H         -1.55194       -6.04952        0.10246
H          1.04245       -2.34239        4.24694
H         -0.16246       -1.11557        4.65065
H          0.05562       -2.50297        5.69780
H         -2.58686       -1.52020        4.20177
H         -3.18546       -3.12764        3.81638
H         -2.51822       -2.79958        5.41347
H         -0.76291       -4.68421        5.18905
H         -1.50278       -5.09719        3.65050
H          0.22323       -4.76661        3.72792
H         -3.60843       -3.71913        1.42315
H         -3.70559       -5.44344        0.99064
H         -3.65414       -4.96838        2.69068
C          6.31030        2.37105        0.81086
C          3.71413        1.65427       -3.57680
C          4.24988        3.69834       -2.21797
C          5.94455        1.86857       -2.51754
C          4.22336       -2.20144        1.96956
C          6.31442       -0.94223        1.53754
C          4.74171       -0.15709        3.33292
H          4.15808        2.05889       -4.48589
H          3.77054        0.56744       -3.62931
H          2.66232        1.93466       -3.57743
H          3.19348        3.94631       -2.11985
H          4.76842        4.10411       -1.35131
H          4.63206        4.20328       -3.10475
H          6.11640        0.79279       -2.52451
H          6.31147        2.27820       -3.45834
H          6.54304        2.29651       -1.71674
H          4.20123       -2.63698        0.97102
H          4.80839       -2.86017        2.61087
H          3.20562       -2.19461        2.35610
H          6.40195       -1.31930        0.51920
H          6.83984        0.00859        1.58719
H          6.82632       -1.63680        2.20318
H          5.17594        0.84086        3.34718
H          5.27073       -0.76420        4.06709
H          3.70348       -0.07260        3.65284
H          5.94917        2.22966        1.82833
H          7.38487        2.55377        0.83187
H          5.80671        3.23299        0.37603
