111
-148.55008495
P         -1.37719        2.60843        1.26353
P         -0.31646       -0.29371        0.54979
C         -0.88168        1.47641        2.59561
C         -0.48182        0.19363        2.28149
C         -0.22255        4.04032        1.12113
C          0.41500        4.07123       -0.25146
C         -0.85600        1.89875        3.90937
H         -1.11455        2.91687        4.14668
C         -0.46344        1.02539        4.90879
H         -0.44889        1.35502        5.93486
C         -0.08171       -0.26406        4.59258
H          0.22986       -0.94216        5.36993
C         -0.07932       -0.67721        3.27260
H          0.25150       -1.66834        3.00430
Pd        -1.64685        1.23734       -0.56910
Cl        -2.62215        2.91827       -1.68036
Cl        -1.70470       -0.29355       -2.22000
C         -1.12956        5.25193        1.42401
C         -2.99498        3.49032        1.47244
H          0.98489        3.16006       -0.44676
H         -0.34902        4.15306       -1.02709
H          1.09261        4.92133       -0.36094
H         -0.78764        6.11979        0.84133
H         -1.02285        5.54405        2.47917
H         -3.67098        3.06518        0.71772
C         -2.62560        4.94779        1.12468
C         -3.58880        3.32197        2.85450
H          0.53912        3.90895        1.90124
H         -3.28059        5.63612        1.67869
H         -2.82743        5.13821        0.06014
H         -3.68121        2.26703        3.12218
H         -2.96436        3.80582        3.60618
H         -4.58074        3.77501        2.92037
C         -0.85866       -4.76867       -0.12289
C         -1.75989       -4.06456        0.71890
C         -1.54811       -2.70965        0.91821
C         -0.53693       -2.04759        0.27115
C          0.25446       -2.69799       -0.63919
C          0.09058       -4.04904       -0.89614
O         -0.85456       -6.18724       -0.13346
C         -2.96626       -4.71778        1.41437
H         -2.17310       -2.15257        1.59592
H          1.01095       -2.13443       -1.15733
C          0.92181       -4.67186       -2.03075
C          3.59468        1.42814       -1.04374
C          3.34672        1.40974        0.35465
C          2.17274        0.82877        0.80425
C          1.24104        0.34234       -0.07583
C          1.41906        0.47874       -1.42800
C          2.56271        1.05876       -1.94698
O          4.88884        1.73977       -1.53367
C          4.29390        2.02200        1.40017
H          1.97118        0.75547        1.85899
H          0.62490        0.15787       -2.07977
C          2.61063        1.32305       -3.46130
C         -4.21284       -3.82433        1.22972
C         -3.31006       -6.09451        0.81932
C         -2.67039       -4.86650        2.91577
C          2.38722       -4.79922       -1.58359
C          0.39161       -6.05201       -2.45622
C          0.84962       -3.75807       -3.27402
C          0.02693       -6.74126        0.82890
H         -4.10213       -2.86483        1.73187
H         -4.39485       -3.63302        0.17256
H         -5.09968       -4.30501        1.64198
H         -4.22169       -6.49693        1.26038
H         -3.45607       -6.02173       -0.25784
H         -2.51323       -6.81210        1.00007
H         -3.52049       -5.30367        3.43889
H         -1.80716       -5.50750        3.08450
H         -2.45894       -3.89831        3.36874
H          3.00291       -5.21347       -2.38159
H          2.79812       -3.82685       -1.31348
H          2.47847       -5.45123       -0.71689
H          0.93316       -6.43120       -3.32252
H          0.50045       -6.78007       -1.65588
H         -0.66541       -5.99444       -2.71372
H          1.36278       -4.21151       -4.12163
H         -0.18641       -3.58159       -3.56177
H          1.31627       -2.79238       -3.09076
H          1.04264       -6.39167        0.65072
H         -0.27714       -6.44109        1.83037
H          0.00153       -7.82870        0.75557
C          5.71032        0.59259       -1.66999
C          4.98213        0.89335        2.18481
C          5.36192        2.92920        0.76506
C          3.48218        2.90043        2.37746
C          1.29169        1.99686       -3.90267
C          3.75508        2.27301       -3.85390
C          2.77168       -0.01014       -4.20893
H          5.57252        0.26106        1.52390
H          5.64799        1.29804        2.94658
H          4.24775        0.26078        2.68252
H          4.89642        3.69503        0.14556
H          5.96028        3.42591        1.52848
H          6.04005        2.35776        0.13558
H          4.13830        3.38491        3.10008
H          2.94750        3.68006        1.83620
H          2.75376        2.31873        2.93982
H          0.43335        1.34273       -3.75955
H          1.11647        2.90926       -3.33349
H          1.32496        2.26114       -4.95915
H          3.71335        2.52186       -4.91402
H          3.69741        3.19984       -3.28416
H          4.72529        1.82188       -3.65941
H          3.68637       -0.51967       -3.91079
H          2.81038        0.14943       -5.28615
H          1.93508       -0.67524       -3.99977
H          5.84243        0.11192       -0.70159
H          5.24918       -0.11727       -2.35534
H          6.68347        0.89126       -2.06026
