58
-89.86427351
P          1.82347       -0.44818        0.61811
C          1.55818        1.32566        0.79908
C          1.50573        1.93091        2.03380
C          1.29439        3.29436        2.12421
C          1.14850        4.04761        0.97673
C          1.22160        3.44152       -0.26086
C          1.43210        2.07738       -0.34705
H          1.49955        1.59253       -1.30842
H          1.64434        1.34475        2.92684
C          3.59129       -0.66412        0.34787
C          4.44996       -0.15828        1.29837
C          5.81720       -0.30768        1.14381
C          6.31672       -0.96330        0.03605
C          5.45359       -1.46601       -0.91688
C          4.08985       -1.31308       -0.75733
H          3.40649       -1.68614       -1.49980
H          4.04707        0.35639        2.15651
C          1.40949       -1.38584        2.15447
C         -0.06862       -1.64895        2.41036
C         -0.94652       -0.40209        2.38018
P         -1.57415       -0.07787        0.67884
C         -3.07083       -1.04954        0.46599
C         -4.29081       -0.42155        0.57673
C         -5.45710       -1.14974        0.42386
C         -5.39204       -2.50384        0.16147
C         -4.16610       -3.12981        0.05155
C         -3.00183       -2.39910        0.20603
H         -2.03986       -2.87481        0.10487
H         -4.32478        0.63722        0.77865
C         -1.90939        1.65947        0.37461
C         -2.05550        2.55632        1.40847
C         -2.31763        3.88560        1.12949
C         -2.43666        4.30516       -0.18113
C         -2.30221        3.39896       -1.21430
C         -2.04171        2.07112       -0.93143
H         -1.94822        1.34158       -1.72004
H         -1.96447        2.21733        2.42748
Pd         0.02977       -0.77532       -0.85756
Cl         1.47213       -1.66321       -2.31848
Cl        -1.72279       -0.95214       -2.26326
H         -1.83404       -0.51192        3.00881
H         -0.40723        0.47105        2.74532
H         -0.44751       -2.36647        1.67010
H         -0.17819       -2.15985        3.37984
H          1.96335       -2.32590        2.09068
H          1.84921       -0.83083        2.98453
H          1.24446        3.76854        3.09066
H          1.10992        4.02753       -1.15824
H          6.48984        0.08791        1.88701
H          5.84128       -1.97369       -1.78484
H         -6.41332       -0.65992        0.50730
H         -4.11505       -4.18535       -0.15942
H         -2.42536        4.59328        1.93499
H         -2.40088        3.72331       -2.23711
H          0.97816        5.10954        1.04700
H          7.38120       -1.08044       -0.08611
H         -6.29944       -3.07252        0.03920
H         -2.63761        5.34165       -0.39782
