58
-89.86483268
P          1.56216        0.34001        0.72130
C          1.90242        2.02011        0.18362
C          1.93227        3.06566        1.07875
C          2.17553        4.34929        0.62421
C          2.39034        4.57549       -0.72134
C          2.36805        3.52210       -1.61386
C          2.12487        2.24082       -1.15592
H          2.10830        1.40176       -1.83286
H          1.76027        2.87802        2.12610
C          3.09101       -0.60122        0.78002
C          3.09534       -1.95850        0.55232
C          4.28474       -2.66185        0.61259
C          5.46167       -2.00116        0.90455
C          5.45276       -0.63976        1.13535
C          4.26159        0.06124        1.07305
H          4.23799        1.12528        1.24784
H          2.17316       -2.46203        0.31078
C          0.80617        0.28792        2.40064
C          0.21122       -1.09127        2.68102
C         -1.26868       -1.21107        2.34353
P         -1.72998       -0.55762        0.67982
C         -3.15702       -1.44579        0.04381
C         -3.17978       -2.82119        0.09102
C         -4.26192       -3.50959       -0.42813
C         -5.31047       -2.81540       -0.99852
C         -5.27758       -1.43625       -1.05592
C         -4.19438       -0.75120       -0.53574
H         -4.14879        0.32452       -0.58874
H         -2.34359       -3.35398        0.51508
C         -2.11531        1.19024        0.88149
C         -3.20448        1.54088        1.64693
C         -3.50615        2.87666        1.84602
C         -2.70937        3.85377        1.28290
C         -1.61425        3.49831        0.52173
C         -1.31970        2.16341        0.32172
H         -0.46083        1.88502       -0.26190
H         -3.81514        0.76756        2.08617
Pd         0.07849       -0.62359       -0.78383
Cl         1.86017       -0.88634       -2.13193
Cl        -1.37453       -1.49256       -2.26149
H         -1.60501       -2.24817        2.40567
H         -1.87114       -0.64715        3.05881
H          0.78032       -1.84062        2.11344
H          0.36378       -1.36299        3.73753
H          1.60803        0.53748        3.09998
H          0.04993        1.06994        2.48459
H          2.19516        5.17192        1.32005
H          2.53958        3.69629       -2.66333
H          4.29229       -3.72334        0.42695
H          6.37105       -0.12319        1.36155
H         -4.28169       -4.58650       -0.39413
H         -6.09066       -0.89407       -1.51000
H         -4.36028        3.15287        2.44220
H         -0.98441        4.25821        0.08912
H          2.57870        5.57602       -1.07515
H          6.38905       -2.54857        0.94969
H         -6.15206       -3.35115       -1.40645
H         -2.94119        4.89465        1.43959
