87
-129.18482079
P         -1.51606       -0.29924       -0.39335
P          1.68085        0.37961        0.07314
C         -1.17574        0.93163       -1.65561
C          1.55906       -0.72310       -1.35636
C         -0.11700        0.72951       -2.53165
C          0.14466        1.70350       -3.51625
C         -0.66862        2.82245       -3.59037
C         -1.71741        3.00078       -2.71276
C         -1.96798        2.04977       -1.74354
C          2.29592       -1.88090       -1.26976
C          2.20113       -2.84911       -2.24984
C          1.34560       -2.65953       -3.31250
C          0.58384       -1.50880       -3.41795
C          0.70174       -0.50796       -2.43398
Cl         1.07206        0.25024        3.27438
Cl        -1.51211       -1.61258        2.62022
H         -2.33669        3.88020       -2.77977
H         -2.78871        2.17742       -1.05757
H          2.94439       -2.03400       -0.42254
H          2.78166       -3.75401       -2.17507
H         -0.46625        3.56462       -4.34386
H          1.25309       -3.41830       -4.07103
C         -2.24474       -4.33661       -2.33941
C         -1.33136       -4.24172       -1.29829
C         -1.14254       -3.00547       -0.69288
C         -1.82816       -1.89935       -1.13780
C         -2.72408       -1.99827       -2.17615
C         -2.93792       -3.22499       -2.77709
H         -2.40807       -5.29243       -2.80733
C         -0.58961       -5.43778       -0.81540
H         -0.44848       -2.91039        0.12506
H         -3.24196       -1.11522       -2.51661
H         -3.63938       -3.31100       -3.59069
C         -5.07964        1.02803        2.11808
C         -5.15477       -0.14171        1.38793
C         -4.07895       -0.54597        0.62040
C         -2.94032        0.22379        0.58362
C         -2.86235        1.38746        1.31331
C         -3.92990        1.80555        2.09735
H         -5.91704        1.34497        2.71603
H         -6.04940       -0.74178        1.41933
H         -4.11931       -1.46296        0.05585
H         -1.96503        1.98074        1.27427
C         -3.84029        3.07259        2.87277
C          5.66004       -0.25683        2.19160
C          5.48726        0.82709        1.35372
C          4.27450        1.02183        0.71952
C          3.24615        0.13187        0.92546
C          3.41744       -0.95033        1.75764
C          4.62569       -1.15571        2.41237
H          6.60429       -0.41194        2.68519
H          6.29607        1.52125        1.19423
H          4.12390        1.86539        0.06561
H          2.60195       -1.63650        1.91628
C          4.80705       -2.33289        3.30468
C          0.86513        4.79588       -0.61365
C          1.70607        4.11975       -1.47606
C          1.97355        2.77928       -1.26982
C          1.39340        2.12873       -0.20692
C          0.58642        2.80867        0.67629
C          0.30259        4.15458        0.48139
H          0.64204        5.83554       -0.78267
H          2.14304        4.63226       -2.31733
H          2.61429        2.23117       -1.94192
H          0.20506        2.29839        1.54442
C         -0.61520        4.87736        1.40293
Pd        -0.04240       -0.41002        1.43100
C          1.27778        1.56037       -4.47189
C         -0.35286       -1.36588       -4.56749
H          0.91507        1.31476       -5.47075
H          1.84718        2.48838       -4.54129
H          1.96705        0.77464       -4.16066
H         -0.90195       -2.29307       -4.73756
H         -1.08742       -0.57967       -4.39046
H          0.18825       -1.12388       -5.48296
H          0.40572       -5.16421       -0.46182
H         -1.12039       -5.91558        0.00916
H         -0.46716       -6.17422       -1.61088
H         -4.59850        3.11281        3.65597
H         -2.86466        3.16714        3.35183
H         -3.98239        3.93647        2.22192
H          5.06485       -3.22147        2.72674
H          5.60250       -2.16000        4.03087
H          3.89250       -2.54541        3.86037
H         -0.60766        4.42875        2.39735
H         -0.32314        5.92304        1.50902
H         -1.63937        4.84919        1.02815
