171
-217.83401507
P         -1.48383        0.24500       -0.41234
P          1.66779       -0.72629        0.38412
C         -0.42350        1.06718       -1.62407
C          1.04141       -1.71536       -0.99741
C          0.45655        0.28697       -2.36366
C          1.31492        0.90527       -3.29266
C          1.23271        2.27598       -3.47434
C          0.35021        3.03658       -2.73672
C         -0.47011        2.42839       -1.80715
C          1.05098       -3.07354       -0.78163
C          0.52638       -3.93390       -1.72684
C         -0.02776       -3.42104       -2.87994
C         -0.06603       -2.05617       -3.10897
C          0.49206       -1.18217       -2.15766
Cl         0.62634       -1.09358        3.40182
Cl        -2.37730       -1.58735        2.22187
C         -0.72036       -1.54994       -4.34693
C          2.29230        0.10044       -4.07692
H          0.30781        4.10403       -2.87913
H         -1.12981        3.02682       -1.20438
H          1.46311       -3.45833        0.13960
H          0.54017       -4.99811       -1.55721
H          1.87280        2.74888       -4.19959
H         -0.44916       -4.08401       -3.61666
C         -4.22644       -2.57957       -2.64899
C         -3.55561       -3.05587       -1.52994
C         -2.73283       -2.17349       -0.84337
C         -2.58283       -0.87927       -1.27271
C         -3.24110       -0.42905       -2.39070
C         -4.08332       -1.27464       -3.10376
H         -4.88989       -3.24180       -3.17396
H         -2.21024       -2.48785        0.04133
H         -3.07807        0.58439       -2.71305
C         -4.09438        3.35629        1.66238
C         -3.45180        2.40770        2.44688
C         -2.65749        1.46921        1.80511
C         -2.52155        1.46253        0.43712
C         -3.20772        2.38084       -0.32117
C         -3.98934        3.36151        0.27770
H         -4.69812        4.10898        2.13339
H         -2.16859        0.71503        2.39182
H         -3.12892        2.33076       -1.39263
C          5.56465       -2.64182        1.69070
C          4.66683       -2.24100        2.67412
C          3.46789       -1.67489        2.26605
C          3.18160       -1.52062        0.93469
C          4.07770       -1.92374       -0.02446
C          5.29148       -2.49487        0.33513
H          6.49792       -3.08005        1.98736
H          2.73923       -1.36253        2.99149
H          3.82525       -1.79333       -1.06404
C          2.82106        3.63450       -0.08966
C          3.61144        2.64782       -0.66535
C          3.20032        1.32916       -0.52621
C          2.05322        1.01842        0.16160
C          1.29208        2.00770        0.74111
C          1.65865        3.34262        0.61326
H          3.12411        4.66137       -0.16910
H          3.79811        0.53172       -0.93300
H          0.40962        1.73381        1.29023
Pd        -0.42077       -0.83716        1.42471
C         -5.22728       -4.72389       -0.69472
C         -3.75097       -4.50786       -1.07260
C         -2.87765       -4.83803        0.15453
C         -3.36053       -5.46168       -2.21641
H         -5.39635       -5.74295       -0.34733
H         -5.52312       -4.04162        0.10200
H         -5.88316       -4.54794       -1.54659
H         -1.82042       -4.69328       -0.06638
H         -3.14133       -4.20978        1.00504
H         -3.01268       -5.87597        0.45799
H         -3.97962       -5.29981       -3.09790
H         -2.32097       -5.31036       -2.50480
H         -3.47769       -6.50202       -1.91354
C         -4.66692       -1.74852       -5.51028
C         -4.88224       -0.79062       -4.32275
C         -4.44699        0.62207       -4.76018
C         -6.37570       -0.75425       -3.95324
H         -5.22065       -1.41042       -6.38605
H         -3.61324       -1.79970       -5.78157
H         -5.00386       -2.75759       -5.27740
H         -4.99396        0.93789       -5.64843
H         -4.64375        1.35441       -3.97797
H         -3.38374        0.64783       -4.99846
H         -6.73441       -1.74400       -3.67226
H         -6.54707       -0.08498       -3.11023
H         -6.97781       -0.40389       -4.79139
C         -2.25637        2.42468        4.66228
C         -3.62863        2.32409        3.97058
C         -4.28189        0.97408        4.32240
C         -4.52562        3.45772        4.50280
H         -2.35997        2.34130        5.74391
H         -1.58447        1.63318        4.33249
H         -1.78471        3.38236        4.44587
H         -5.24582        0.87174        3.82458
H         -3.65565        0.13898        4.01059
H         -4.44424        0.88624        5.39637
H         -4.63554        3.38782        5.58493
H         -4.09791        4.43439        4.27672
H         -5.52310        3.40676        4.06674
C         -4.50113        4.24563       -2.05415
C         -4.69561        4.45256       -0.53906
C         -4.10881        5.82305       -0.15427
C         -6.20518        4.42583       -0.23629
H         -3.44622        4.28598       -2.32517
H         -4.90470        3.28461       -2.37186
H         -5.01527        5.02257       -2.61979
H         -3.03672        5.85042       -0.34926
H         -4.57724        6.62345       -0.72672
H         -4.26091        6.03494        0.90351
H         -6.40428        4.63048        0.81484
H         -6.73413        5.17436       -0.82600
H         -6.62720        3.44935       -0.47342
C          6.32094       -3.04672        4.43581
C          4.94730       -2.39946        4.17535
C          3.85927       -3.29152        4.80220
C          4.92587       -1.01172        4.84292
H          6.37629       -4.04126        3.99356
H          7.12588       -2.43848        4.02360
H          6.50208       -3.15144        5.50550
H          4.04020       -3.43812        5.86680
H          2.87055       -2.84795        4.69084
H          3.84184       -4.27063        4.32408
H          3.95296       -0.53434        4.73181
H          5.13957       -1.08796        5.90884
H          5.67271       -0.35713        4.39408
C          6.66197       -1.69880       -1.60726
C          6.26889       -2.92821       -0.76662
C          5.58461       -3.97378       -1.66732
C          7.55081       -3.55088       -0.18138
H          7.13416       -0.94083       -0.98277
H          7.36430       -1.97253       -2.39437
H          5.79081       -1.24760       -2.08087
H          4.69865       -3.56272       -2.15004
H          6.26091       -4.31724       -2.44990
H          5.27503       -4.84053       -1.08370
H          8.23033       -3.85586       -0.97717
H          8.08133       -2.83737        0.44889
H          7.32139       -4.43512        0.41299
C          6.08962        2.36002       -0.51493
C          4.94672        2.95280       -1.35928
C          5.17695        4.46858       -1.51124
C          4.96207        2.31971       -2.76225
H          5.97831        1.28179       -0.40571
H          7.05809        2.55291       -0.97599
H          6.09669        2.79623        0.48375
H          4.37174        4.93035       -2.08260
H          5.23700        4.95758       -0.53921
H          6.11169        4.66682       -2.03562
H          4.14993        2.71643       -3.36979
H          5.89985        2.53212       -3.27536
H          4.85096        1.23760       -2.71202
C          0.48898        5.53681        0.20586
C          0.86569        4.48493        1.26652
C          1.73445        5.13686        2.35726
C         -0.43118        3.97483        1.91617
H          1.37312        5.97182       -0.25796
H         -0.11829        5.09219       -0.58115
H         -0.08526        6.34890        0.65157
H          2.01814        4.40326        3.11171
H          2.64845        5.55455        1.93646
H          1.19610        5.94303        2.85535
H         -0.98711        4.79352        2.37288
H         -1.07857        3.51170        1.17414
H         -0.21618        3.24351        2.69412
H         -0.12630       -1.78941       -5.22998
H          2.74145       -0.67875       -3.45883
H         -0.86131       -0.46890       -4.31507
H         -1.70318       -2.00557       -4.47164
H          3.10024        0.72213       -4.46462
H          1.80866       -0.38069       -4.92755
