111
-148.55220936
P         -2.26191        2.11833        1.39618
P          0.16200        0.23264        0.62489
C         -1.15295        1.50621        2.69055
C         -0.10222        0.68237        2.34985
C         -2.56063        3.93863        1.54247
C         -2.07490        4.66157        0.30482
C         -1.34957        1.86293        4.00911
H         -2.16260        2.52193        4.26653
C         -0.49849        1.37878        4.98754
H         -0.65235        1.65468        6.01799
C          0.54789        0.54398        4.64474
H          1.21051        0.16692        5.40629
C          0.74783        0.19622        3.32068
H          1.56366       -0.44907        3.03594
Pd        -1.38056        1.43352       -0.62144
Cl        -3.21989        2.15117       -1.68420
Cl        -0.33369        0.73870       -2.48395
C         -4.08522        4.03498        1.76771
C         -3.99848        1.48990        1.50781
H         -2.23569        5.73965        0.38075
H         -1.00902        4.48954        0.13550
H         -2.60961        4.31033       -0.57951
H         -4.47274        4.93349        1.26611
H         -4.29746        4.18063        2.83700
H         -4.12482        0.76449        0.69241
C         -4.82968        2.76572        1.26406
C         -4.26759        0.84276        2.84947
H         -2.00589        4.27890        2.42746
H         -5.80917        2.66810        1.75500
H         -5.04283        2.87110        0.19001
H         -4.19767        1.57836        3.65248
H         -5.26813        0.40565        2.89175
H         -3.54200        0.05602        3.06356
C         -1.22799       -3.98849       -0.36687
C         -1.86316       -3.26967        0.67857
C         -1.39689       -2.00086        0.98541
C         -0.37954       -1.43356        0.26281
C          0.16548       -2.08193       -0.81416
C         -0.26164       -3.34621       -1.18169
O         -1.55010       -5.35510       -0.58374
C         -3.03485       -3.86318        1.47671
H         -1.82302       -1.43409        1.79462
H          0.92524       -1.57188       -1.38098
C          0.31902       -3.98765       -2.45222
C          4.39089        0.87807       -0.93383
C          4.10916       -0.24592       -0.11213
C          2.81214       -0.41468        0.34503
C          1.84428        0.52157        0.08767
C          2.14787        1.67709       -0.58346
C          3.42059        1.90450       -1.07966
O          5.59912        0.93227       -1.67520
C          5.16048       -1.28615        0.31006
H          2.53846       -1.30032        0.89379
H          1.36428        2.39773       -0.74619
C          3.68880        3.25010       -1.77363
C         -3.93588       -4.72059        0.56924
C         -2.48800       -4.71071        2.63519
C         -3.92110       -2.74544        2.06833
C          0.70606       -2.90026       -3.48170
C          1.57959       -4.78799       -2.09227
C         -0.71662       -4.90031       -3.13345
C         -0.70486       -6.27138        0.10023
H         -3.39917       -5.58156        0.17793
H         -4.80225       -5.09259        1.11554
H         -4.29384       -4.13626       -0.27779
H         -1.86311       -4.10657        3.29259
H         -3.29983       -5.12827        3.23024
H         -1.88268       -5.53577        2.26919
H         -3.39949       -2.20261        2.85474
H         -4.22296       -2.03791        1.29636
H         -4.82504       -3.16127        2.51287
H          1.55797       -2.31095       -3.14550
H          0.98534       -3.35023       -4.43403
H         -0.12836       -2.22315       -3.66263
H          2.01155       -5.25502       -2.97700
H          2.33459       -4.13752       -1.65249
H          1.35925       -5.57163       -1.37174
H         -1.62712       -4.34541       -3.35723
H         -0.32798       -5.30570       -4.06728
H         -0.98639       -5.73957       -2.49749
H         -0.16865       -6.88640       -0.62201
H          0.01013       -5.73627        0.72643
H         -1.31143       -6.93097        0.72067
C          5.49196        0.30349       -2.94175
C          6.59845       -0.81996        0.02327
C          5.05909       -1.52348        1.83290
C          4.89314       -2.61009       -0.42479
C          2.99302        3.26121       -3.14524
C          3.11946        4.39725       -0.90969
C          5.19118        3.52682       -1.95525
H          6.77892       -0.73075       -1.04524
H          6.78408        0.15363        0.47553
H          7.32717       -1.52517        0.42232
H          5.83612       -2.20807        2.17210
H          5.17599       -0.58618        2.37617
H          4.10009       -1.95667        2.11207
H          4.94605       -2.47928       -1.50406
H          5.62334       -3.36762       -0.14129
H          3.90249       -2.99385       -0.18415
H          1.92068        3.09965       -3.03934
H          3.14100        4.21553       -3.64987
H          3.38283        2.47645       -3.79047
H          3.53560        4.36330        0.09677
H          3.36420        5.36709       -1.34211
H          2.03510        4.34406       -0.82836
H          5.64358        2.81287       -2.63940
H          5.71348        3.45312       -1.00205
H          5.36085        4.52410       -2.36047
H          5.24179       -0.74889       -2.81733
H          4.71087        0.78109       -3.53092
H          6.44329        0.38856       -3.46735
