111
-148.55360107
P         -2.23528        2.48076        0.19251
P         -0.21617        0.05957        0.55917
C         -1.79630        1.91842        1.85528
C         -0.91223        0.87373        2.01118
C         -2.06925        4.32028        0.06058
C         -0.86390        4.70946       -0.76772
C         -2.31850        2.55365        2.96347
H         -3.00937        3.37073        2.83190
C         -1.94788        2.14041        4.23152
H         -2.35572        2.63430        5.09833
C         -1.04857        1.10293        4.38640
H         -0.75154        0.78780        5.37315
C         -0.52445        0.47168        3.27249
H          0.19664       -0.32398        3.37739
Pd        -0.98486        1.23444       -1.28922
Cl        -1.97020        2.41168       -2.92798
Cl         0.42341        0.09833       -2.62063
C         -3.42259        4.74981       -0.53582
C         -4.03213        2.28771       -0.20236
H         -0.94544        4.31325       -1.78102
H         -0.76542        5.79472       -0.84499
H          0.05837        4.31501       -0.33605
H         -3.31990        4.81791       -1.62759
H         -3.68573        5.76431       -0.19995
H         -4.07254        1.88052       -1.22160
C         -4.55033        3.73747       -0.18653
C         -4.71784        1.35635        0.77440
H         -1.96828        4.69235        1.08851
H         -4.94769        3.96105        0.81303
H         -5.40292        3.84659       -0.87397
H         -4.65016        1.74271        1.79273
H         -5.77741        1.23763        0.53612
H         -4.25512        0.36638        0.76922
C         -1.25022       -4.37786        0.24821
C         -0.61744       -3.70984       -0.83005
C         -0.35805       -2.35737       -0.69755
C         -0.62426       -1.68663        0.46700
C         -1.14968       -2.35138        1.54465
C         -1.44064       -3.70410        1.48160
O         -1.72222       -5.70742        0.08333
C         -0.23687       -4.41565       -2.14126
H          0.04338       -1.79273       -1.52002
H         -1.34465       -1.79334        2.44207
C         -1.97683       -4.41422        2.73519
C          4.20733        1.01496        0.11811
C          3.77868       -0.33279        0.00497
C          2.42921       -0.60558        0.14965
C          1.53852        0.38628        0.46309
C          1.96090        1.67259        0.67627
C          3.29795        2.01338        0.55323
O          5.53253        1.37298       -0.24594
C          4.73712       -1.48698       -0.32630
H          2.05059       -1.60006       -0.00489
H          1.22143        2.41393        0.92738
C          3.72944        3.45757        0.85134
C         -1.40960       -4.31852       -3.12857
C          1.00152       -3.74730       -2.78197
C          0.13070       -5.88963       -1.89250
C         -1.45151       -3.73114        4.01870
C         -3.51156       -4.34869        2.74072
C         -1.50750       -5.87975        2.78439
C         -3.05518       -5.79444       -0.40482
H         -1.65161       -3.27647       -3.33644
H         -1.16582       -4.80332       -4.07350
H         -2.30292       -4.79187       -2.72831
H          1.34566       -4.31721       -3.64464
H          0.78250       -2.73995       -3.13245
H          1.82335       -3.69191       -2.06932
H          0.93543       -5.96589       -1.16197
H         -0.71816       -6.45245       -1.51274
H          0.46067       -6.37183       -2.81232
H         -1.72215       -4.30861        4.90241
H         -0.36545       -3.64488        3.99548
H         -1.87315       -2.73532        4.14746
H         -3.93081       -4.84184        1.86720
H         -3.91972       -4.83218        3.62792
H         -3.85286       -3.31374        2.73280
H         -1.83348       -6.36510        3.70398
H         -1.90695       -6.45274        1.95132
H         -0.42046       -5.93618        2.73787
H         -3.06319       -6.32547       -1.35647
H         -3.66682       -6.35509        0.30192
H         -3.47672       -4.79773       -0.54088
C          5.67710        1.72890       -1.61530
C          6.14676       -1.22153        0.23234
C          4.24324       -2.80534        0.31258
C          4.79542       -1.67065       -1.85058
C          3.61881        4.29633       -0.43100
C          2.81949        4.08516        1.93224
C          5.16893        3.50594        1.39493
H          6.59997       -0.34852       -0.23017
H          6.10676       -1.04681        1.30696
H          6.80628       -2.06978        0.05066
H          4.98072       -3.59731        0.18418
H          4.07211       -2.67728        1.38107
H          3.31808       -3.15490       -0.14236
H          5.16514       -0.77347       -2.34136
H          5.45161       -2.49770       -2.12032
H          3.80403       -1.88049       -2.25128
H          4.26835        3.90946       -1.21239
H          2.59861        4.28391       -0.81340
H          3.89735        5.33322       -0.24477
H          3.19863        5.05980        2.23869
H          1.80470        4.23793        1.56844
H          2.77432        3.45032        2.81677
H          5.88407        3.15096        0.65712
H          5.26539        2.88001        2.28143
H          5.45186        4.52302        1.66509
H          6.37999        1.05059       -2.09854
H          4.71385        1.67721       -2.12462
H          6.07474        2.74093       -1.68987
