111
-148.55629228
P         -2.56020        2.07443        0.77714
P          0.13574        0.43546        0.49137
C         -1.48701        1.85083        2.22036
C         -0.29758        1.16834        2.08211
C         -3.37498        3.73536        0.75720
C         -2.76460        4.63007       -0.29955
C         -1.85860        2.34357        3.45482
H         -2.79904        2.85887        3.56187
C         -1.02938        2.15868        4.54779
H         -1.31817        2.54359        5.51219
C          0.16520        1.47900        4.40523
H          0.80926        1.33291        5.25671
C          0.53010        0.97768        3.16866
H          1.45159        0.43087        3.04290
Pd        -1.29059        1.44653       -1.03249
Cl        -2.88874        2.05673       -2.47828
Cl         0.15430        0.80607       -2.63734
C         -4.85775        3.38821        0.52430
C         -4.04764        0.97462        0.78895
H         -2.87369        4.18778       -1.29104
H         -3.24727        5.60997       -0.32089
H         -1.69670        4.78069       -0.12392
H         -5.06737        3.44499       -0.55279
H         -5.50714        4.14404        0.99163
H         -4.12125        0.55239       -0.22235
C         -5.20204        1.96207        1.04147
C         -3.91705       -0.12386        1.82153
H         -3.23433        4.16576        1.75678
H         -5.40329        2.00225        2.12089
H         -6.13068        1.59081        0.58180
H         -3.05773       -0.76342        1.61010
H         -3.77544        0.29644        2.81894
H         -4.80857       -0.75461        1.84954
C         -1.25532       -3.89720        0.27387
C         -1.12927       -3.26788        1.53938
C         -0.68503       -1.95672        1.58015
C         -0.44305       -1.25885        0.42651
C         -0.66648       -1.82975       -0.79800
C         -1.11126       -3.13402       -0.91258
O         -1.48676       -5.29637        0.19748
C         -1.43736       -3.99774        2.85607
H         -0.51546       -1.46107        2.51955
H         -0.47559       -1.23332       -1.67297
C         -1.40395       -3.69524       -2.31237
C          4.54187        0.72832       -0.62019
C          3.82161       -0.46602       -0.87563
C          2.48379       -0.50949       -0.52404
C          1.88086        0.54269        0.11337
C          2.59641        1.66151        0.45068
C          3.94237        1.76733        0.13797
O          5.84560        0.90023       -1.15663
C          4.44602       -1.68886       -1.56531
H          1.88399       -1.36961       -0.76352
H          2.08267        2.45957        0.95835
C          4.72134        3.01018        0.59678
C         -1.89246       -2.99907        3.94470
C         -2.58168       -5.01059        2.66989
C         -0.17110       -4.71424        3.34859
C         -2.50260       -4.77214       -2.26269
C         -1.91516       -2.57501       -3.24832
C         -0.11227       -4.27895       -2.90489
C         -0.29867       -6.07492        0.12823
H         -2.72460       -2.39129        3.59110
H         -2.22208       -3.52690        4.83932
H         -1.08461       -2.33401        4.24627
H         -2.84435       -5.48352        3.61583
H         -3.47080       -4.51714        2.27867
H         -2.30392       -5.79868        1.97419
H          0.17156       -5.45026        2.62541
H          0.63824       -4.00158        3.50577
H         -0.35551       -5.22948        4.29093
H         -2.75393       -5.12217       -3.26358
H         -2.18738       -5.63531       -1.68218
H         -3.40794       -4.37495       -1.80486
H         -2.24993       -2.98789       -4.19950
H         -2.75535       -2.04693       -2.79815
H         -1.13635       -1.84799       -3.47311
H          0.28458       -5.07486       -2.27892
H         -0.28873       -4.68762       -3.89946
H          0.65476       -3.50933       -2.98827
H         -0.28966       -6.79826        0.94351
H         -0.27236       -6.62294       -0.81335
H          0.58123       -5.43422        0.20005
C          5.86335        1.49042       -2.45041
C          5.94451       -1.81046       -1.23540
C          3.77109       -2.99284       -1.07956
C          4.24326       -1.56899       -3.08348
C          4.61650        4.10231       -0.47830
C          4.13870        3.56044        1.91866
C          6.19886        2.67142        0.86645
H          6.50575       -0.96184       -1.61805
H          6.09760       -1.85306       -0.15757
H          6.37057       -2.71213       -1.67467
H          4.29390       -3.86675       -1.46755
H          3.78098       -3.05252        0.00844
H          2.73827       -3.06428       -1.41688
H          4.66362       -2.42941       -3.60341
H          3.18234       -1.51200       -3.32634
H          4.71943       -0.67317       -3.47495
H          5.14882        5.00291       -0.17334
H          5.03754        3.76709       -1.42308
H          3.57501        4.36913       -0.65609
H          4.08144        2.77614        2.67307
H          4.76470        4.36003        2.31412
H          3.14167        3.97531        1.77880
H          6.28091        1.86616        1.59570
H          6.73490        3.53701        1.25491
H          6.70496        2.35199       -0.04111
H          4.84814        1.71920       -2.77728
H          6.45322        2.40657       -2.42610
H          6.32742        0.80535       -3.15967
