72
-98.09188494
Fe        -0.05499        2.72591       -0.25740
P          1.84139       -0.07271        0.28740
P         -1.92463       -0.14950        0.08414
C          1.45286        1.69373        0.59878
C          0.53834        2.20457        1.60609
C          0.48923        3.65114        1.48261
C          1.38596        4.04017        0.41031
C          1.98865        2.83397       -0.12956
C         -1.53174        1.46279       -0.69812
C         -2.08904        2.76007       -0.34896
C         -1.53459        3.74490       -1.26328
C         -0.65182        3.05166       -2.18574
C         -0.67441        1.63636       -1.85739
C          2.62386       -0.90456        1.75464
C          4.06314       -1.20672        1.30445
C          3.27533       -0.19702       -0.89219
C          4.18521       -1.24778       -0.23900
C         -3.55708       -0.73060       -0.56580
C         -4.54275       -0.14629        0.46155
C         -2.39952        0.09796        1.85895
C         -3.92835       -0.11105        1.88721
H         -0.01057        1.60861        2.33596
H         -0.10295        4.32830        2.10276
H          1.58660        5.06173        0.07944
H          2.71710        2.79394       -0.94140
H         -2.80609        2.95101        0.45239
H         -0.19095        0.82622       -2.40579
Cl         1.61447       -3.01396       -0.40819
Cl        -1.53508       -2.92156       -0.93142
Pd         0.01688       -1.43130       -0.24055
H          2.06828       -1.83859        1.90379
C          2.54272       -0.04453        3.01028
H          3.77611        0.77827       -0.86808
C          2.85745       -0.52827       -2.32752
H          4.41492       -2.14941        1.74963
H          4.72886       -0.42777        1.69996
H          5.22911       -1.10405       -0.55715
H          3.90002       -2.24253       -0.60667
H         -1.75824        4.81409       -1.26824
H         -0.10800        3.50678       -3.01686
H          3.06281        0.90414        2.82236
H          3.66544       -1.08762       -2.81946
H         -3.55707       -1.82520       -0.51141
C         -3.80880       -0.27121       -1.99780
H         -2.16342        1.14844        2.07040
C         -1.60445       -0.82756        2.78031
H         -5.48658       -0.71312        0.45180
H         -4.80914        0.87349        0.14960
H         -4.40808        0.67014        2.49569
H         -4.15901       -1.05038        2.40336
H         -4.85937       -0.46289       -2.25722
H         -1.80675       -0.55738        3.82619
C          3.11604       -0.73116        4.24095
H          3.03721       -0.10585        5.13321
H          2.59328       -1.66690        4.44807
H          4.17095       -0.97584        4.10546
C          2.52413        0.70907       -3.14760
H          2.11865        0.45651       -4.12993
H          1.79581        1.33817       -2.63776
H          3.41052        1.32632       -3.30731
C         -2.89289       -0.93859       -3.01149
H         -1.84364       -0.76015       -2.77393
H         -3.03493       -2.02079       -3.01713
H         -3.06783       -0.57648       -4.02701
C         -1.87117       -2.31402        2.57463
H         -2.87944       -2.59600        2.88019
H         -1.76643       -2.59778        1.52748
H         -1.17987       -2.93437        3.14986
H          1.49732        0.23230        3.19366
H          2.00721       -1.22156       -2.30040
H         -3.69536        0.81988       -2.04311
H         -0.53456       -0.63074        2.63168
