111
-148.55070810
P         -2.58189        2.06794        0.80347
P          0.08813        0.39836        0.46932
C         -1.52450        1.76042        2.24594
C         -0.33370        1.08710        2.08023
C         -3.43504        3.70721        0.93816
C         -2.75957        4.78407        0.11783
C         -1.89858        2.19101        3.50328
H         -2.84155        2.69434        3.63757
C         -1.07037        1.95725        4.58761
H         -1.36254        2.29402        5.56887
C          0.12789        1.29156        4.41516
H          0.77141        1.10761        5.25968
C          0.49493        0.84965        3.15698
H          1.41671        0.30925        3.00679
Pd        -1.32716        1.44438       -1.03948
Cl        -2.57635        2.76711       -2.34101
Cl         0.02455        0.66240       -2.66095
C         -4.87489        3.36767        0.51392
C         -4.05209        0.94617        0.69287
H         -3.26285        5.74692        0.23158
H         -1.71508        4.90975        0.41208
H         -2.77273        4.53323       -0.94252
H         -4.96250        3.49946       -0.57348
H         -5.58555        4.08148        0.95793
H         -4.05203        0.54447       -0.32934
C         -5.24301        1.90386        0.89125
C         -3.96481       -0.17162        1.70919
H         -3.41443        3.97684        2.00142
H         -5.55473        1.86625        1.94401
H         -6.11363        1.55725        0.31421
H         -3.89713        0.23028        2.72189
H         -4.84234       -0.82095        1.66637
H         -3.07972       -0.78901        1.54209
C         -1.16762       -3.98144        0.28952
C         -1.08696       -3.32641        1.54530
C         -0.68641       -2.00110        1.56972
C         -0.45119       -1.31187        0.40908
C         -0.63918       -1.91070       -0.80796
C         -1.03131       -3.23310       -0.90707
O         -1.34374       -5.38955        0.23256
C         -1.39515       -4.03920        2.87125
H         -0.54538       -1.48780        2.50410
H         -0.45885       -1.32292       -1.69012
C         -1.26747       -3.83497       -2.30068
C          4.47830        0.78102       -0.67489
C          3.79941       -0.44934       -0.86434
C          2.46465       -0.52019       -0.50594
C          1.82754        0.54238        0.07883
C          2.50487        1.70070        0.35605
C          3.84532        1.83673        0.03131
O          5.77312        0.97013       -1.22684
C          4.46396       -1.68502       -1.49076
H          1.89442       -1.41162       -0.69845
H          1.96486        2.50535        0.82477
C          4.58094        3.12933        0.41834
C         -0.10844       -4.67713        3.41609
C         -1.93124       -3.03706        3.91933
C         -2.48143       -5.11361        2.68260
C          0.05803       -4.38993       -2.84425
C         -2.33146       -4.94635       -2.25418
C         -1.78785       -2.75489       -3.27726
C         -0.12533       -6.12299        0.21966
H          0.29224       -5.41113        2.72104
H          0.65847       -3.91985        3.57743
H         -0.29305       -5.17870        4.36573
H         -1.16676       -2.32512        4.22679
H         -2.78055       -2.48017        3.52490
H         -2.26214       -3.55771        4.81767
H         -2.14538       -5.90461        2.01671
H         -2.74650       -5.57429        3.63390
H         -3.38286       -4.67655        2.25427
H         -0.07722       -4.82401       -3.83451
H          0.80323       -3.59862       -2.92227
H          0.46067       -5.16043       -2.19085
H         -2.54451       -5.32710       -3.25273
H         -2.00338       -5.78527       -1.64576
H         -3.26115       -4.56937       -1.82925
H         -1.02653       -2.00831       -3.49790
H         -2.08161       -3.20103       -4.22702
H         -2.65743       -2.24487       -2.86362
H         -0.05714       -6.70493       -0.69927
H          0.72747       -5.44596        0.28480
H         -0.10639       -6.81371        1.06255
C          5.76482        1.49010       -2.55051
C          3.83710       -2.98356       -0.93142
C          4.25137       -1.65465       -3.01201
C          5.96703       -1.73625       -1.16334
C          4.43137        4.15786       -0.71276
C          3.98472        3.72812        1.71275
C          6.07102        2.85901        0.69596
H          2.80640       -3.10970       -1.25908
H          4.38938       -3.85841       -1.27380
H          3.85246       -2.98335        0.15816
H          4.69918       -0.76811       -3.45473
H          4.69491       -2.52960       -3.48646
H          3.18821       -1.64242       -3.25149
H          6.42307       -2.64432       -1.55696
H          6.49646       -0.88981       -1.59326
H          6.12560       -1.71647       -0.08564
H          4.86293        3.78934       -1.64023
H          3.37988        4.37435       -0.89995
H          4.92902        5.09332       -0.45839
H          3.95872        2.98350        2.50799
H          4.58346        4.56929        2.06142
H          2.97294        4.09938        1.55715
H          6.58414        2.50963       -0.19650
H          6.18571        2.09765        1.46677
H          6.57706        3.76302        1.03383
H          6.25067        0.78497       -3.22463
H          4.74079        1.66444       -2.88343
H          6.32129        2.42681       -2.57868
