87
-129.18369237
P         -1.53148       -0.26462       -0.41241
P          1.71865        0.30248        0.24711
C         -1.08657        0.97557       -1.63370
C          1.52429       -0.80326       -1.17390
C          0.01176        0.73737       -2.44977
C          0.36468        1.70236       -3.41403
C         -0.40619        2.84769       -3.53147
C         -1.49793        3.06041       -2.71492
C         -1.83596        2.11891       -1.76278
C          2.14838       -2.01852       -1.01450
C          2.04445       -2.99252       -1.98874
C          1.29599       -2.74644       -3.11865
C          0.64075       -1.53945       -3.29221
C          0.76174       -0.53816       -2.30933
Cl         0.96646       -0.32990        3.38725
Cl        -1.72898       -1.83898        2.33612
H         -2.08260        3.96002       -2.81589
H         -2.68908        2.27250       -1.12319
H          2.71416       -2.20661       -0.11402
H          2.53734       -3.94211       -1.85974
H         -0.13635        3.58335       -4.27003
H          1.20000       -3.50600       -3.87594
C         -2.45823       -4.17133       -2.53975
C         -1.61882       -4.18774       -1.43437
C         -1.36723       -2.99080       -0.77538
C         -1.91666       -1.81492       -1.22970
C         -2.74129       -1.80504       -2.33020
C         -3.01803       -2.99030       -2.98613
H         -2.67063       -5.09548       -3.04974
C         -1.02609       -5.45991       -0.94031
H         -0.73585       -2.98275        0.09667
H         -3.15573       -0.87031       -2.67434
H         -3.66479       -2.99034       -3.84814
C         -5.17691        1.12631        1.94515
C         -5.24725       -0.02023        1.17949
C         -4.14319       -0.43668        0.46046
C         -2.98099        0.29711        0.50548
C         -2.90891        1.43877        1.26931
C         -4.00513        1.86780        2.00731
H         -6.03561        1.45292        2.50659
H         -6.15945       -0.59312        1.14606
H         -4.18071       -1.33766       -0.12954
H         -1.99542        2.00646        1.29108
C         -3.92427        3.10772        2.82626
C          6.07887       -0.00805        1.53044
C          5.75121        0.18583        0.20304
C          4.42386        0.27810       -0.17368
C          3.43550        0.17137        0.77770
C          3.76296       -0.02111        2.09824
C          5.08949       -0.10697        2.49841
H          7.11128       -0.08640        1.82602
H          6.52828        0.26297       -0.53969
H          4.15284        0.42153       -1.20791
H          2.97749       -0.11339        2.82644
C          5.43648       -0.34411        3.92626
C          0.80186        4.72135       -0.30460
C          1.67770        4.09296       -1.16747
C          1.96535        2.75133       -1.00098
C          1.36599        2.04876        0.01723
C          0.52308        2.68129        0.90242
C          0.22320        4.02973        0.75037
H          0.56605        5.76323       -0.43941
H          2.12949        4.64417       -1.97580
H          2.64255        2.24447       -1.66902
H          0.12814        2.13339        1.74103
C         -0.71775        4.71207        1.67894
Pd        -0.12241       -0.54629        1.44586
C          1.54771        1.52063       -4.29961
C         -0.18921       -1.33780       -4.51279
H          2.18518        0.70650       -3.95269
H          1.23801        1.29517       -5.32082
H          2.15597        2.42593       -4.32619
H         -0.89197       -0.51350       -4.38759
H          0.43785       -1.11992       -5.37811
H         -0.77205       -2.23207       -4.73792
H         -0.06308       -5.28246       -0.45913
H         -1.68363       -5.93592       -0.21168
H         -0.86255       -6.16252       -1.75867
H         -3.99444        3.99489        2.19546
H         -4.73140        3.15228        3.55872
H         -2.98103        3.15257        3.37234
H          6.38410        0.13021        4.18540
H          4.67068        0.06139        4.58911
H          5.52616       -1.41191        4.13047
H         -0.77343        4.19197        2.63617
H         -0.39915        5.73634        1.87753
H         -1.72144        4.74824        1.25334
