171
-217.84003143
P         -1.68114        0.63313       -0.10363
P          1.42112       -0.34696       -0.37902
C         -1.05493        1.56073       -1.52633
C          0.58099       -1.21905       -1.71069
C         -0.30822        0.96477       -2.54021
C          0.31105        1.78598       -3.50279
C          0.10095        3.15346       -3.46508
C         -0.68407        3.72284       -2.48658
C         -1.24438        2.92268       -1.51079
C          0.69107       -2.58666       -1.79003
C          0.05333       -3.28143       -2.79863
C         -0.71456       -2.59877       -3.71695
C         -0.86228       -1.22388       -3.64067
C         -0.18617       -0.51388       -2.62853
Cl         2.01795        1.23317        2.41764
Cl        -1.14855        0.85240        3.15543
C         -1.71989       -0.51911       -4.63341
C          1.20658        1.22203       -4.55037
H         -0.84417        4.78866       -2.47029
H         -1.83777        3.36946       -0.73116
H          1.27019       -3.11945       -1.05462
H          0.15348       -4.35221       -2.86743
H          0.56466        3.77329       -4.21398
H         -1.21215       -3.13620       -4.50624
C         -3.14751       -3.58980       -0.78816
C         -3.71930       -2.55702       -1.52105
C         -3.23393       -1.27087       -1.31779
C         -2.23738       -1.04400       -0.40121
C         -1.69412       -2.07482        0.32776
C         -2.13215       -3.37834        0.13588
H         -3.51460       -4.58937       -0.93166
H         -3.63064       -0.43379       -1.86682
H         -0.92258       -1.85560        1.04426
C         -4.85392        3.00446        2.11478
C         -5.22402        1.83413        1.46091
C         -4.23881        1.12873        0.78315
C         -2.94145        1.57611        0.76511
C         -2.59338        2.72935        1.42230
C         -3.54387        3.47024        2.11048
H         -5.60087        3.56111        2.64699
H         -4.48454        0.21258        0.27566
H         -1.56077        3.03732        1.42920
C          3.94486       -3.41122        1.86771
C          4.11221       -3.25165        0.49904
C          3.33520       -2.29555       -0.14279
C          2.40901       -1.55281        0.55028
C          2.24368       -1.75133        1.90060
C          3.01622       -2.67535        2.59012
H          4.56297       -4.12010        2.38727
H          3.43016       -2.14626       -1.20307
H          1.51454       -1.16954        2.43122
C          4.10675        2.93377       -1.99676
C          3.07657        3.26957       -1.12788
C          2.27206        2.24447       -0.64929
C          2.49493        0.94189       -1.02250
C          3.51024        0.63183       -1.89283
C          4.34184        1.62346       -2.39707
H          4.74399        3.71805       -2.35956
H          1.45859        2.46106        0.01946
H          3.65702       -0.39112       -2.18811
Pd         0.14497        0.61814        1.34195
C         -5.37451       -1.57669       -3.18862
C         -4.87761       -2.85382       -2.48362
C         -6.05149       -3.45452       -1.68793
C         -4.40986       -3.85387       -3.55612
H         -4.57955       -1.11451       -3.77213
H         -6.19387       -1.80485       -3.87017
H         -5.74026       -0.84734       -2.46662
H         -6.90157       -3.65688       -2.33924
H         -5.76779       -4.39114       -1.20944
H         -6.37938       -2.76658       -0.90860
H         -5.21455       -4.08048       -4.25534
H         -3.57568       -3.44525       -4.12472
H         -4.08256       -4.79171       -3.10903
C         -2.67524       -5.15686        1.81128
C         -1.56105       -4.55909        0.93357
C         -0.39994       -4.12047        1.84606
C         -1.03045       -5.63206       -0.03501
H         -2.29952       -5.98869        2.40684
H         -3.07201       -4.40494        2.49320
H         -3.50070       -5.52623        1.20372
H          0.00344       -4.97397        2.38988
H          0.41244       -3.68578        1.26477
H         -0.73194       -3.38755        2.58072
H         -0.62507       -6.48327        0.51176
H         -1.81723       -6.00217       -0.69095
H         -0.23522       -5.22672       -0.65895
C         -7.60678        2.18957        2.28801
C         -6.65983        1.28979        1.47118
C         -6.66260       -0.11811        2.09665
C         -7.18333        1.21292        0.02514
H         -8.61953        1.78663        2.28659
H         -7.28197        2.26057        3.32590
H         -7.65178        3.19467        1.86908
H         -6.05032       -0.81011        1.51941
H         -6.26647       -0.08858        3.11146
H         -7.67298       -0.52436        2.13947
H         -7.16722        2.19680       -0.44327
H         -6.57302        0.54430       -0.58037
H         -8.20811        0.84278       -0.00016
C         -2.09187        4.34130        3.95359
C         -3.10061        4.73534        2.85830
C         -4.29113        5.45419        3.52062
C         -2.43328        5.70713        1.86625
H         -1.20830        3.86864        3.52607
H         -1.76451        5.21473        4.51705
H         -2.53962        3.63487        4.65207
H         -3.96038        6.35697        4.03403
H         -5.03287        5.74892        2.77847
H         -4.77452        4.81484        4.25902
H         -3.12083        5.96897        1.06224
H         -2.13091        6.62745        2.36557
H         -1.54412        5.26736        1.41602
C          4.85770       -5.59795        0.00758
C          5.14117       -4.10652       -0.25419
C          6.55290       -3.74831        0.24256
C          5.07796       -3.86510       -1.77571
H          3.84639       -5.85740       -0.30542
H          5.55411       -6.22956       -0.54372
H          4.95439       -5.84281        1.06449
H          6.65643       -3.94380        1.30937
H          7.31084       -4.33138       -0.28028
H          6.76301       -2.69212        0.07438
H          5.79347       -4.50004       -2.29804
H          4.08644       -4.09220       -2.16737
H          5.31824       -2.83138       -2.02142
C          1.76018       -2.00805        4.70307
C          2.90775       -2.85199        4.11189
C          4.22869       -2.40065        4.76046
C          2.64478       -4.33175        4.44669
H          0.80250       -2.28203        4.26170
H          1.68304       -2.16000        5.77942
H          1.92601       -0.94430        4.53391
H          4.18481       -2.49718        5.84511
H          5.06703       -2.99836        4.40424
H          4.43619       -1.35771        4.52162
H          2.54726       -4.47563        5.52261
H          1.72417       -4.67583        3.97750
H          3.45657       -4.96957        4.09957
C          1.65757        4.88065        0.24189
C          2.87574        4.72811       -0.69215
C          2.65119        5.60926       -1.93422
C          4.12961        5.20390        0.06339
H          1.52038        5.92189        0.53296
H          0.74239        4.55292       -0.24953
H          1.78640        4.29860        1.15426
H          2.48596        6.64842       -1.65026
H          3.51031        5.57956       -2.60318
H          1.78018        5.27070       -2.49358
H          4.01346        6.23258        0.40410
H          4.31212        4.57711        0.93610
H          5.01407        5.15963       -0.57109
C          6.23621        2.47165       -3.87193
C          5.51598        1.23232       -3.30670
C          5.00517        0.39011       -4.49165
C          6.52331        0.40746       -2.48505
H          7.04271        2.17717       -4.54340
H          5.54745        3.10018       -4.43633
H          6.67679        3.06954       -3.07445
H          4.28461        0.95304       -5.08355
H          5.82726        0.10612       -5.14844
H          4.52204       -0.52584       -4.15427
H          6.05981       -0.49435       -2.08714
H          7.37442        0.10682       -3.09575
H          6.89894        0.98733       -1.64224
H         -1.13812       -0.21190       -5.50309
H          1.46918        0.18475       -4.33827
H         -2.17593        0.37167       -4.19866
H         -2.52564       -1.16444       -4.98575
H          2.13551        1.79144       -4.60458
H          0.73371        1.25985       -5.53259
