171
-217.83858459
P         -1.70581        0.66459        0.17669
P          1.53327       -0.20668       -0.19227
C         -0.85443        1.88436       -0.85145
C          0.73775       -0.75144       -1.71630
C         -0.10665        1.57051       -1.98040
C          0.60142        2.59797       -2.63196
C          0.51516        3.89276       -2.14915
C         -0.23459        4.18690       -1.03072
C         -0.91059        3.17411       -0.37807
C          0.86894       -2.04972       -2.14346
C          0.25041       -2.46575       -3.30584
C         -0.50314       -1.57189       -4.03828
C         -0.65362       -0.25785       -3.62431
C         -0.00688        0.16494       -2.44766
Cl         1.95202        0.89202        2.81859
Cl        -1.17915        0.22916        3.41152
C         -1.47899        0.69390       -4.41881
C          1.46938        2.32545       -3.81081
H         -0.28434        5.19763       -0.65992
H         -1.47973        3.38399        0.51560
H          1.45571       -2.74202       -1.56549
H          0.35226       -3.48674       -3.63572
H          1.05677        4.67388       -2.65560
H         -0.98293       -1.89405       -4.94674
C         -2.83446       -3.45369       -1.35476
C         -1.86717       -3.36488       -0.36020
C         -1.49585       -2.09859        0.07370
C         -2.07010       -0.97436       -0.47336
C         -3.03471       -1.08466       -1.44448
C         -3.43719       -2.33039       -1.90844
H         -3.14467       -4.42428       -1.68997
H         -0.77231       -1.99325        0.86254
H         -3.50302       -0.19093       -1.81937
C         -5.71265        2.46116        1.30436
C         -4.96173        1.84619        2.30020
C         -3.73062        1.31311        1.94787
C         -3.27311        1.39462        0.65875
C         -4.02537        2.00658       -0.31314
C         -5.26455        2.55510       -0.00882
H         -6.66812        2.87822        1.55770
H         -3.11092        0.83892        2.68701
H         -3.63823        2.06199       -1.31729
C          3.83443       -3.72424        1.58028
C          2.88508       -3.09594        2.37641
C          2.17764       -2.03447        1.83111
C          2.42050       -1.60068        0.54959
C          3.38112       -2.22279       -0.21014
C          4.09658       -3.30621        0.28168
H          4.38672       -4.55132        1.98268
H          1.44305       -1.53387        2.43411
H          3.57402       -1.86751       -1.20714
C          4.55370        3.00237       -1.24265
C          3.68472        3.22835       -0.18290
C          2.77633        2.22800        0.13524
C          2.73479        1.06437       -0.58998
C          3.58412        0.86878       -1.65157
C          4.51942        1.83696       -1.99813
H          5.28662        3.75194       -1.47711
H          2.09777        2.34602        0.96022
H          3.49574       -0.03695       -2.22492
Pd         0.12406        0.41605        1.60066
C         -1.70051       -4.58492        1.81344
C         -1.28520       -4.60786        0.33124
C          0.24921       -4.60065        0.22002
C         -1.80428       -5.91365       -0.30136
H         -1.32858       -3.69121        2.31240
H         -2.78617       -4.58922        1.90810
H         -1.31237       -5.45474        2.34284
H          0.68416       -5.45302        0.74156
H          0.55918       -4.65487       -0.82271
H          0.67121       -3.69658        0.65301
H         -1.54317       -5.96741       -1.35820
H         -1.36625       -6.78155        0.19154
H         -2.88691       -5.99443       -0.20625
C         -5.88621       -1.94946       -2.22227
C         -4.59547       -2.42602       -2.91274
C         -4.80223       -3.86983       -3.40989
C         -4.30757       -1.53498       -4.13399
H         -5.78837       -0.92078       -1.87723
H         -6.73567       -1.99676       -2.90336
H         -6.11135       -2.57065       -1.35559
H         -5.08494       -4.53247       -2.59228
H         -5.59769       -3.91203       -4.15387
H         -3.89435       -4.25701       -3.87239
H         -4.20655       -0.48883       -3.84916
H         -3.38633       -1.84575       -4.62455
H         -5.11467       -1.60133       -4.86341
C         -6.81958        2.38224        3.95830
C         -5.43527        1.73680        3.75664
C         -4.42381        2.45116        4.67267
C         -5.52657        0.25012        4.14845
H         -6.79817        3.44286        3.70848
H         -7.57340        1.89537        3.33985
H         -7.13901        2.29491        4.99673
H         -3.43731        1.99387        4.60592
H         -4.32554        3.49994        4.39343
H         -4.74131        2.40674        5.71422
H         -5.87808        0.13759        5.17385
H         -6.21872       -0.27874        3.49353
H         -4.55596       -0.23892        4.07387
C         -5.25554        4.38772       -1.71941
C         -6.07751        3.22947       -1.12304
C         -7.40962        3.79642       -0.59606
C         -6.38659        2.19482       -2.22134
H         -5.81499        4.90123       -2.50114
H         -5.00356        5.11681       -0.94957
H         -4.32456        4.02950       -2.15740
H         -7.23871        4.54414        0.17821
H         -7.97021        4.27533       -1.39882
H         -8.03649        3.00639       -0.18296
H         -6.97103        2.64172       -3.02535
H         -5.47197        1.79459       -2.65746
H         -6.95680        1.36042       -1.81370
C          1.13909       -3.86209        4.01110
C          2.62373       -3.49600        3.83584
C          2.97143       -2.30604        4.75013
C          3.47690       -4.70724        4.25783
H          0.93087       -4.16672        5.03650
H          0.49260       -3.01659        3.77976
H          0.86830       -4.68709        3.35331
H          4.01477       -2.01735        4.62567
H          2.35624       -1.43708        4.51904
H          2.81218       -2.55851        5.79816
H          3.25900       -5.57542        3.63598
H          4.54088       -4.48400        4.18164
H          3.27209       -4.98242        5.29239
C          4.44630       -4.48701       -1.90139
C          5.13780       -3.98438       -0.61956
C          5.80261       -5.18588        0.07891
C          6.23077       -2.96317       -0.98593
H          4.01183       -3.66391       -2.46758
H          5.15497       -4.99952       -2.55165
H          3.64510       -5.18470       -1.65797
H          6.32880       -4.87398        0.98088
H          5.06335       -5.93896        0.35145
H          6.53053       -5.66088       -0.57876
H          6.99288       -3.41655       -1.61948
H          5.81317       -2.11279       -1.52320
H          6.71869       -2.58311       -0.08863
C          2.67547        4.60303        1.70502
C          3.75881        4.54054        0.60958
C          3.54935        5.72802       -0.34787
C          5.13981        4.64867        1.28043
H          2.72822        5.54619        2.24844
H          1.67748        4.52529        1.27426
H          2.80220        3.79864        2.42926
H          3.58241        6.67438        0.19163
H          4.31818        5.75723       -1.11895
H          2.58142        5.65633       -0.84274
H          5.21812        5.56348        1.86758
H          5.30965        3.80342        1.94712
H          5.93928        4.65702        0.54046
C          5.59794        2.85175       -4.04289
C          5.53727        1.61389       -3.12654
C          5.16250        0.39499       -3.99354
C          6.92081        1.36918       -2.49939
H          6.29422        2.69034       -4.86574
H          4.61979        3.06696       -4.47113
H          5.93075        3.73622       -3.50182
H          5.18929       -0.52697       -3.41375
H          4.16435        0.50792       -4.41620
H          5.86248        0.27906       -4.82088
H          7.23670        2.22534       -1.90391
H          6.89836        0.49776       -1.84515
H          7.67417        1.19649       -3.26777
H         -2.13879        0.16962       -5.11095
H          1.05496        2.77439       -4.71460
H         -0.84881        1.36041       -5.00810
H         -2.10115        1.30868       -3.76618
H          1.58778        1.25560       -3.98612
H          2.46398        2.74458       -3.65636
