111
-148.55249345
P         -1.64145        2.79769       -0.11735
P         -0.49798       -0.08540        0.51529
C         -1.67459        2.15787        1.58547
C         -1.24046        0.87478        1.84498
C         -0.39789        4.16181       -0.23920
C          0.71765        3.78362       -1.19035
C         -2.09422        2.96035        2.62755
H         -2.38832        3.97793        2.43052
C         -2.10747        2.46411        3.91977
H         -2.43997        3.09007        4.73173
C         -1.68851        1.17176        4.17177
H         -1.69349        0.78789        5.17863
C         -1.24216        0.37738        3.13101
H         -0.87595       -0.62100        3.31264
Pd        -1.30978        0.89401       -1.40070
Cl        -2.56859        1.84588       -2.99274
Cl        -0.71767       -0.91722       -2.59021
C         -1.23355        5.37571       -0.69449
C         -3.17806        3.72639       -0.57352
H          0.31968        3.56537       -2.18350
H          1.44606        4.59142       -1.29310
H          1.24843        2.89235       -0.84946
H         -1.09603        5.51014       -1.77609
H         -0.85030        6.29867       -0.23395
H         -3.34403        3.52572       -1.63957
C         -2.74800        5.19263       -0.38971
C         -4.38737        3.29825        0.23006
H         -0.01547        4.31340        0.77870
H         -2.95913        5.50044        0.64339
H         -3.35966        5.85278       -1.02371
H         -4.24504        3.49088        1.29345
H         -5.28384        3.83869       -0.08210
H         -4.57929        2.22913        0.11413
C         -0.88914       -4.60892        0.79059
C          0.31247       -3.97787        1.20259
C          0.39546       -2.59908        1.10270
C         -0.67654       -1.85469        0.68502
C         -1.87426       -2.44927        0.38772
C         -2.02583       -3.82433        0.46639
O         -0.94125       -6.02276        0.66532
C          1.53221       -4.76354        1.70891
H          1.31279       -2.08446        1.33162
H         -2.68855       -1.82062        0.07010
C         -3.39795       -4.44233        0.15531
C          3.79623        1.30540       -0.07722
C          3.23214        0.35292       -0.96397
C          1.92273       -0.04219       -0.75282
C          1.21483        0.40324        0.33088
C          1.78687        1.24657        1.24622
C          3.08938        1.68996        1.09108
O          5.04768        1.90517       -0.37994
C          3.99045       -0.21652       -2.17217
H          1.41347       -0.67128       -1.46201
H          1.18998        1.57523        2.07849
C          3.69490        2.61337        2.15926
C          2.43463       -5.12253        0.51853
C          2.35155       -3.91461        2.70784
C          1.10096       -6.03976        2.45393
C         -3.62069       -5.73785        0.95668
C         -4.53490       -3.47149        0.54778
C         -3.49492       -4.72609       -1.35149
C         -0.56952       -6.50363       -0.62052
H          3.31776       -5.66896        0.84855
H          1.90763       -5.74057       -0.20422
H          2.76771       -4.22202        0.00326
H          1.71483       -3.53296        3.50558
H          3.14056       -4.51076        3.16574
H          2.83375       -3.06936        2.21889
H          0.58374       -6.73024        1.79253
H          1.96321       -6.56278        2.86680
H          0.42722       -5.79563        3.27456
H         -4.61903       -6.13891        0.78364
H         -2.90518       -6.50670        0.67657
H         -3.51001       -5.55212        2.02449
H         -4.42691       -3.14625        1.58219
H         -4.55043       -2.58914       -0.09014
H         -5.50694       -3.95407        0.44847
H         -2.72739       -5.42666       -1.67120
H         -4.46559       -5.14967       -1.60784
H         -3.36407       -3.80859       -1.92483
H         -1.39753       -7.06277       -1.05586
H         -0.30725       -5.67211       -1.27598
H          0.28276       -7.17645       -0.52722
C          4.95093        3.08101       -1.17462
C          3.50814       -1.65137       -2.48733
C          3.72625        0.67004       -3.39873
C          5.50130       -0.30446       -1.89147
C          3.39913        4.07592        1.79340
C          3.07958        2.32055        3.54683
C          5.21316        2.39309        2.28594
H          3.56158       -2.28102       -1.59974
H          2.48280       -1.66219       -2.85368
H          4.12776       -2.10717       -3.25921
H          4.24029        0.28335       -4.27824
H          2.66014        0.71072       -3.62130
H          4.06740        1.68872       -3.23050
H          6.02861       -0.76595       -2.72601
H          5.93447        0.67973       -1.73304
H          5.69126       -0.89995       -0.99910
H          3.82133        4.33418        0.82536
H          2.32482        4.25042        1.74321
H          3.81662        4.75612        2.53529
H          3.59685        2.88105        4.32521
H          2.02986        2.60731        3.59160
H          3.15727        1.26107        3.78959
H          5.73075        2.65823        1.36747
H          5.43232        1.34819        2.50306
H          5.63199        3.00137        3.08722
H          5.39805        3.92006       -0.64183
H          5.49821        2.93998       -2.10647
H          3.90739        3.30610       -1.39714
