171
-217.83922146
P         -1.64888        0.74826        0.29587
P          1.45234       -0.22687       -0.40149
C         -1.01431        1.74982       -1.06592
C          0.45430       -1.02635       -1.66908
C         -0.44205        1.22827       -2.21995
C          0.13118        2.11782       -3.14833
C          0.07690        3.48053       -2.90813
C         -0.50844        3.97957       -1.76484
C         -1.04149        3.10574       -0.83760
C          0.54879       -2.37948       -1.88113
C         -0.22026       -2.98459       -2.85528
C         -1.08469       -2.22407       -3.61550
C         -1.19599       -0.85666       -3.41841
C         -0.39434       -0.24071       -2.43843
Cl         2.36902        1.50539        2.25360
Cl        -0.58288        1.16661        3.42329
C         -2.14071       -0.05222       -4.24210
C          0.82306        1.63492       -4.37356
H         -0.53764        5.04217       -1.58716
H         -1.47393        3.47831        0.07948
H          1.22708       -2.96460       -1.28491
H         -0.14820       -4.04774       -3.01691
H          0.51289        4.15360       -3.62718
H         -1.68255       -2.69409       -4.37772
C         -2.91470       -3.57345       -0.23768
C         -1.80841       -3.30900        0.56174
C         -1.39327       -1.98829        0.68174
C         -2.06893       -0.98188        0.03103
C         -3.17042       -1.26292       -0.73935
C         -3.61570       -2.56911       -0.89390
H         -3.25401       -4.58646       -0.33385
H         -0.54828       -1.74400        1.30065
H         -3.70790       -0.45101       -1.19816
C         -5.49859        2.71753        1.66593
C         -5.25061        2.56703        0.30595
C         -4.05403        1.97320       -0.07415
C         -3.14860        1.55461        0.86950
C         -3.40908        1.71512        2.20541
C         -4.59133        2.30080        2.63381
H         -6.41838        3.17291        1.97844
H         -3.82045        1.84212       -1.11795
H         -2.67028        1.39810        2.91857
C          3.88827       -3.39624        1.80242
C          4.02386       -3.24886        0.42846
C          3.28141       -2.25344       -0.19356
C          2.39868       -1.47526        0.51601
C          2.27425       -1.65048        1.87515
C          3.02789       -2.60226        2.54758
H          4.47315       -4.13718        2.31396
H          3.39763       -2.08293       -1.24902
H          1.59731       -1.02966        2.42957
C          4.40646        2.44093       -2.57818
C          3.77121        2.93706       -1.44538
C          2.88270        2.10410       -0.78061
C          2.62897        0.83806       -1.24168
C          3.25327        0.36936       -2.37259
C          4.17021        1.15723       -3.05761
H          5.10761        3.06715       -3.09500
H          2.39597        2.44125        0.11689
H          3.01338       -0.61575       -2.73502
Pd         0.38825        0.83432        1.43096
C          0.36627       -4.52437        0.90938
C         -1.09815       -4.41145        1.36359
C         -1.76920       -5.78544        1.17080
C         -1.15415       -4.05232        2.85984
H          0.89956       -5.27943        1.48655
H          0.42323       -4.80409       -0.14197
H          0.88791       -3.57892        1.03687
H         -1.73645       -6.09549        0.12647
H         -1.25797       -6.54971        1.75613
H         -2.80951       -5.76346        1.49495
H         -0.70077       -4.83488        3.46740
H         -0.62732       -3.12127        3.06171
H         -2.18640       -3.92886        3.18680
C         -4.82979       -2.19258       -3.06782
C         -4.91071       -2.84012       -1.67399
C         -6.09113       -2.23405       -0.89368
C         -5.16024       -4.34936       -1.85944
H         -5.73623       -2.38705       -3.64088
H         -4.70908       -1.11254       -2.99930
H         -3.98673       -2.59518       -3.62735
H         -5.96179       -1.16061       -0.76061
H         -7.03276       -2.39756       -1.41744
H         -6.17064       -2.68418        0.09564
H         -4.32463       -4.82247       -2.37517
H         -5.30277       -4.84700       -0.90051
H         -6.05773       -4.52241       -2.45324
C         -6.67343        1.80723       -1.61344
C         -6.23570        3.02537       -0.77884
C         -5.54143        4.05493       -1.69039
C         -7.49166        3.67916       -0.17154
H         -7.15634        1.06217       -0.98165
H         -7.38002        2.09963       -2.38995
H         -5.82156        1.33335       -2.09990
H         -6.22272        4.41661       -2.46032
H         -5.19978        4.91266       -1.11134
H         -4.67488        3.62265       -2.18952
H         -7.23011        4.55615        0.42030
H         -8.17625        4.00278       -0.95553
H         -8.02972        2.97814        0.46631
C         -6.20185        3.13171        4.42390
C         -4.84081        2.46809        4.13957
C         -3.73074        3.35017        4.74141
C         -4.82183        1.08291        4.81257
H         -6.25376        4.12615        3.98100
H         -7.02113        2.53221        4.02745
H         -6.36217        3.24032        5.49652
H         -3.71154        4.32714        4.25901
H         -3.88913        3.50294        5.80873
H         -2.74949        2.89491        4.61257
H         -5.01455        1.16589        5.88199
H         -5.58410        0.43470        4.38075
H         -3.85640        0.59448        4.68539
C          6.18813       -3.23756       -0.82023
C          4.98967       -4.10587       -0.40143
C          4.26679       -4.63652       -1.65592
C          5.50705       -5.31624        0.40028
H          6.88789       -3.80408       -1.43435
H          5.86010       -2.37132       -1.39262
H          6.72387       -2.87214        0.05566
H          4.91771       -5.29546       -2.23028
H          3.37696       -5.20086       -1.37722
H          3.95794       -3.82638       -2.31498
H          6.10289       -4.99896        1.25563
H          4.67962       -5.92668        0.76191
H          6.14096       -5.94895       -0.22090
C          1.95190       -1.78863        4.70935
C          2.96206       -2.76516        4.07326
C          4.35199       -2.47666        4.66992
C          2.53841       -4.20418        4.41750
H          0.94568       -1.95599        4.32790
H          1.91856       -1.91680        5.79102
H          2.22737       -0.75324        4.50959
H          5.09865       -3.17301        4.29011
H          4.67588       -1.46742        4.41631
H          4.33629       -2.56373        5.75616
H          1.56938       -4.43519        3.97811
H          3.25728       -4.93065        4.04055
H          2.46097       -4.34075        5.49597
C          4.61761        4.22426        0.52979
C          4.03254        4.34403       -0.88985
C          2.70590        5.12402       -0.83780
C          5.02607        5.12974       -1.76660
H          4.82990        5.20743        0.94915
H          3.92564        3.71763        1.20153
H          5.54621        3.65417        0.51628
H          1.98087        4.63034       -0.19179
H          2.86034        6.13256       -0.45495
H          2.26879        5.20397       -1.83264
H          4.64795        5.24215       -2.78262
H          5.19076        6.12888       -1.36339
H          5.99309        4.62901       -1.80971
C          5.90201        1.58752       -4.87634
C          4.91395        0.57279       -4.26967
C          3.90624        0.16501       -5.36005
C          5.70534       -0.66899       -3.81917
H          6.65731        1.88332       -4.14847
H          6.42104        1.15686       -5.73259
H          5.38336        2.48182       -5.22144
H          4.41697       -0.28675       -6.21032
H          3.18493       -0.55947       -4.98388
H          3.35807        1.03220       -5.72560
H          6.27929       -1.08828       -4.64535
H          6.40067       -0.41327       -3.01992
H          5.03791       -1.44679       -3.45049
H         -1.61787        0.45457       -5.05357
H          0.26246        1.90032       -5.27102
H         -2.63850        0.70641       -3.63575
H         -2.91288       -0.67875       -4.68996
H          0.95351        0.55233       -4.36163
H          1.81216        2.08798       -4.45175
