111
-148.55357162
P         -2.52724        2.16629       -0.27112
P         -0.00791        0.45695        0.56210
C         -1.88382        2.28541        1.41674
C         -0.79547        1.52457        1.78330
C         -2.76520        3.84725       -1.00776
C         -1.91686        4.01085       -2.25022
C         -2.47339        3.13400        2.33200
H         -3.30793        3.74556        2.03047
C         -1.98325        3.20120        3.62451
H         -2.44470        3.86096        4.34104
C         -0.90427        2.42281        3.99626
H         -0.52375        2.47195        5.00326
C         -0.30752        1.58408        3.07209
H          0.53636        0.97438        3.35013
Pd        -1.16150        0.72116       -1.44676
Cl        -2.59655        0.84534       -3.16235
Cl         0.31619       -0.68275       -2.38362
C         -4.28518        3.91441       -1.27010
C         -4.25692        1.51343       -0.38241
H         -2.03684        5.00377       -2.69022
H         -0.85645        3.86384       -2.03043
H         -2.20050        3.27838       -3.00794
H         -4.47210        4.48291       -2.19256
H         -4.77882        4.48364       -0.46891
H         -4.18488        0.50581       -0.81422
C         -4.92310        2.49933       -1.36319
C         -4.92778        1.46855        0.97483
H         -2.46265        4.57231       -0.23991
H         -6.00385        2.54533       -1.16380
H         -4.82505        2.12338       -2.39229
H         -5.91468        1.00291        0.91975
H         -4.32831        0.91368        1.69962
H         -5.06584        2.47641        1.36918
C         -1.07536       -3.94947        0.92870
C          0.28914       -3.56302        0.95263
C          0.58966       -2.21544        0.85030
C         -0.40151       -1.27027        0.81864
C         -1.72178       -1.63019        0.90286
C         -2.09272       -2.96271        0.98899
O         -1.42316       -5.32094        0.80322
C          1.44083       -4.57686        1.03938
H          1.60999       -1.88721        0.76198
H         -2.46315       -0.85053        0.86436
C         -3.58391       -3.32236        1.07645
C          4.47270        1.12408        0.01661
C          3.55838        1.57983       -0.96850
C          2.20787        1.35767       -0.75963
C          1.75034        0.76947        0.39095
C          2.62162        0.44074        1.39819
C          3.98473        0.65144        1.26408
O          5.85954        1.06257       -0.27556
C          3.97509        2.29252       -2.26579
H          1.49393        1.62102       -1.52111
H          2.22923       -0.00248        2.29716
C          4.88039        0.38716        2.48716
C          2.65977       -3.95387        1.75690
C          1.03068       -5.81811        1.85232
C          1.86678       -4.98469       -0.37921
C         -4.14590       -3.49631       -0.34323
C         -3.79965       -4.60629        1.89778
C         -4.37739       -2.19942        1.77953
C         -1.52275       -5.77328       -0.54163
H          3.11750       -3.16594        1.16077
H          2.36872       -3.53435        2.71957
H          3.42872       -4.70467        1.93763
H          1.86793       -6.50627        1.96604
H          0.69102       -5.52997        2.84661
H          0.22252       -6.36115        1.36929
H          2.69534       -5.69184       -0.35013
H          1.04658       -5.45004       -0.92004
H          2.18608       -4.11302       -0.95010
H         -5.20895       -3.73412       -0.31635
H         -4.01870       -2.58165       -0.92213
H         -3.63623       -4.29581       -0.87480
H         -4.86114       -4.82519        2.01093
H         -3.33654       -5.46611        1.42039
H         -3.36660       -4.50270        2.89210
H         -3.92211       -1.93890        2.73468
H         -4.42547       -1.30455        1.16273
H         -5.40427       -2.51047        1.97038
H         -2.52361       -6.16508       -0.72216
H         -1.32142       -4.95450       -1.23371
H         -0.80826       -6.57835       -0.71201
C          6.24764       -0.18327       -0.83044
C          3.06773        3.52218       -2.49355
C          5.42406        2.80652       -2.21165
C          3.81473        1.32470       -3.45019
C          4.99492       -1.12709        2.72534
C          6.28735        0.98867        2.32468
C          4.24976        1.04757        3.73304
H          3.09298        4.18428       -1.62853
H          3.39681        4.09162       -3.36240
H          2.03228        3.23540       -2.66928
H          5.66831        3.38771       -3.10053
H          5.57456        3.44025       -1.33839
H          6.13225        1.98345       -2.15241
H          4.07435        1.81175       -4.38968
H          4.45604        0.45310       -3.33557
H          2.78691        0.97131       -3.52751
H          5.42495       -1.63091        1.86174
H          5.62715       -1.33900        3.58721
H          4.01573       -1.56468        2.91454
H          6.22632        2.04968        2.08511
H          6.86975        0.87914        3.23922
H          6.83639        0.49743        1.52492
H          4.89940        0.93902        4.60119
H          3.29100        0.59890        3.98731
H          4.08933        2.11198        3.56391
H          6.01472       -0.99042       -0.13783
H          5.71509       -0.35838       -1.76375
H          7.32042       -0.17222       -1.02419
