171
-217.83361574
P         -1.68092        0.75634        0.31959
P          1.47522       -0.26069       -0.35837
C         -0.94524        1.83281       -0.93301
C          0.47602       -0.94140       -1.70011
C         -0.33985        1.37491       -2.09726
C          0.30350        2.30312       -2.93731
C          0.29542        3.64514       -2.59687
C         -0.31772        4.08295       -1.44270
C         -0.92805        3.16844       -0.60637
C          0.51326       -2.28038       -2.00574
C         -0.25928       -2.78142       -3.03509
C         -1.08178       -1.93623       -3.75005
C         -1.14561       -0.58478       -3.45260
C         -0.33472       -0.07386       -2.42149
Cl         2.27289        1.27314        2.44016
Cl        -0.70560        0.74996        3.51074
C         -2.05282        0.31368       -4.21934
C          1.01483        1.87796       -4.17424
H         -0.31101        5.12984       -1.18674
H         -1.38612        3.49220        0.31661
H          1.13357       -2.94339       -1.42856
H         -0.22531       -3.83145       -3.27532
H          0.78813        4.34983       -3.24553
H         -1.68706       -2.32678       -4.55035
C         -3.00423       -3.47237       -0.64845
C         -3.71406       -2.39717       -1.16771
C         -3.25627       -1.11959       -0.87493
C         -2.14184       -0.93343       -0.09471
C         -1.46107       -2.01009        0.42572
C         -1.87590       -3.30698        0.14507
H         -3.34548       -4.47072       -0.84701
H         -3.79126       -0.25873       -1.23701
H         -0.60151       -1.83392        1.04661
C         -5.47861        2.79296        1.72047
C         -4.61459        2.28269        2.68201
C         -3.44598        1.67288        2.24646
C         -3.16214        1.58262        0.90820
C         -4.02471        2.09592       -0.02887
C         -5.20580        2.71431        0.35966
H         -6.38506        3.26587        2.04855
H         -2.73340        1.27627        2.94571
H         -3.76915        2.02025       -1.07308
C          3.86290       -3.60998        1.61231
C          3.90285       -3.45008        0.23349
C          3.17208       -2.40766       -0.32339
C          2.40136       -1.58473        0.46218
C          2.38898       -1.75785        1.82638
C          3.12737       -2.76382        2.43194
H          4.42728       -4.41078        2.05172
H          3.20227       -2.23085       -1.38382
H          1.82361       -1.08661        2.44481
C          4.54549        2.50951       -2.21123
C          4.27010        1.29188       -2.82175
C          3.32218        0.46774       -2.22599
C          2.68763        0.85202       -1.07013
C          2.96917        2.06049       -0.48717
C          3.90110        2.92014       -1.05015
H          5.29415        3.14308       -2.64761
H          3.05879       -0.47651       -2.66978
H          2.47528        2.32641        0.42975
Pd         0.31954        0.66702        1.50809
C         -4.90312       -1.81268       -3.30540
C         -5.01222       -2.56926       -1.96944
C         -6.18163       -1.99723       -1.14750
C         -5.30089       -4.05126       -2.27633
H         -4.06935       -2.19385       -3.89345
H         -5.81188       -1.93051       -3.89540
H         -4.74782       -0.74642       -3.14749
H         -6.27644       -2.52114       -0.19659
H         -6.02896       -0.94063       -0.93084
H         -7.12433       -2.09725       -1.68512
H         -4.48225       -4.50020       -2.83875
H         -5.44620       -4.62249       -1.35972
H         -6.20763       -4.15289       -2.87257
C         -0.78037       -5.50688       -0.41184
C         -1.17320       -4.54411        0.72468
C         -2.13242       -5.25394        1.69703
C          0.10432       -4.16265        1.49056
H         -0.27295       -6.38690       -0.01687
H         -1.65286       -5.84856       -0.96685
H         -0.10503       -5.02022       -1.11387
H         -3.03726       -5.58404        1.18785
H         -1.66012       -6.12951        2.14216
H         -2.42802       -4.58283        2.50330
H          0.59602       -5.04767        1.89408
H          0.81455       -3.66235        0.83494
H         -0.12521       -3.49988        2.32366
C         -6.29795        1.68583        4.44293
C         -4.96496        2.40722        4.17181
C         -5.09427        3.89640        4.54082
C         -3.87874        1.77631        5.06559
H         -6.22954        0.63443        4.16420
H         -6.56243        1.73878        5.49890
H         -7.11277        2.13067        3.87296
H         -5.32314        4.01755        5.59947
H         -4.16435        4.42563        4.33363
H         -5.88774        4.37860        3.97111
H         -4.14146        1.86989        6.11912
H         -3.75935        0.71511        4.84846
H         -2.91682        2.26763        4.92104
C         -6.61043        2.12582       -1.63150
C         -6.14763        3.27427       -0.71548
C         -5.39516        4.32944       -1.54800
C         -7.39221        3.93740       -0.09513
H         -5.76559        1.65098       -2.12912
H         -7.13330        1.36221       -1.05615
H         -7.28889        2.49057       -2.40247
H         -4.53375        3.89510       -2.05416
H         -6.04472        4.76221       -2.30863
H         -5.03578        5.13731       -0.91089
H         -7.11214        4.76709        0.55370
H         -8.04713        4.33252       -0.87164
H         -7.96911        3.22028        0.48857
C          4.69264       -4.02429       -2.11736
C          4.71652       -4.42506       -0.62884
C          4.11448       -5.83520       -0.49143
C          6.18158       -4.43291       -0.15423
H          5.28446       -4.71803       -2.71433
H          3.67688       -4.03552       -2.51235
H          5.10962       -3.02752       -2.25995
H          4.14904       -6.17988        0.54153
H          3.07215       -5.84083       -0.81043
H          4.65944       -6.55417       -1.10287
H          6.26466       -4.77255        0.87732
H          6.78745       -5.09615       -0.77140
H          6.60972       -3.43239       -0.21329
C          3.75013       -1.55027        4.52931
C          3.15482       -2.85457        3.96552
C          4.01461       -4.03716        4.45056
C          1.72508       -3.03952        4.50645
H          4.75554       -1.38727        4.14201
H          3.14365       -0.68804        4.25433
H          3.80737       -1.58448        5.61698
H          5.04854       -3.93150        4.12261
H          4.01863       -4.09115        5.53916
H          3.62657       -4.98365        4.07440
H          1.07592       -2.21764        4.20683
H          1.29067       -3.96816        4.13857
H          1.72472       -3.08054        5.59547
C          6.50041        0.54388       -3.66229
C          5.05068        0.85774       -4.07140
C          5.04303        1.98510       -5.12221
C          4.43465       -0.40087       -4.71497
H          7.08886        0.22247       -4.52149
H          6.98391        1.42038       -3.23181
H          6.52637       -0.25151       -2.91748
H          5.57007        1.67644       -6.02493
H          4.02391        2.24676       -5.40408
H          5.53087        2.88462       -4.74976
H          4.96842       -0.66989       -5.62635
H          4.48863       -1.25595       -4.04204
H          3.39045       -0.23449       -4.97871
C          2.89453        5.07596       -0.26108
C          4.19588        4.25840       -0.35892
C          5.23511        5.08682       -1.13783
C          4.74284        3.98600        1.05477
H          3.07282        6.03850        0.21778
H          2.48374        5.26319       -1.25277
H          2.13861        4.54982        0.32075
H          4.88562        5.30439       -2.14701
H          5.42186        6.03861       -0.64062
H          6.18632        4.55940       -1.20646
H          5.65193        3.38705        1.00670
H          4.97787        4.91762        1.56897
H          4.01850        3.44385        1.66153
H         -2.82011       -0.25177       -4.74946
H          0.50778        2.25095       -5.06528
H         -1.49780        0.89033       -4.95981
H         -2.55787        1.01647       -3.55451
H          1.07803        0.79193       -4.25003
H          2.03294        2.26824       -4.18122
