111
-148.55465880
P         -2.53003        2.09255        0.88043
P          0.10557        0.39088        0.48520
C         -1.44979        1.76964        2.29975
C         -0.28054        1.06563        2.11201
C         -3.28457        3.78090        0.96870
C         -2.63087        4.73522       -0.00667
C         -1.79062        2.21334        3.56156
H         -2.71634        2.74517        3.70802
C         -0.95001        1.95825        4.63142
H         -1.21501        2.30466        5.61703
C          0.22593        1.25875        4.43854
H          0.87928        1.05885        5.27180
C          0.55973        0.80660        3.17452
H          1.46584        0.24508        3.00818
Pd        -1.34069        1.45035       -0.99448
Cl        -2.98660        2.35175       -2.21616
Cl         0.09486        0.78849       -2.59437
C         -4.77527        3.50234        0.70121
C         -4.05849        1.04943        0.86090
H         -2.74459        4.38124       -1.03199
H         -3.07734        5.73076        0.04879
H         -1.56030        4.83125        0.18947
H         -4.96677        3.61525       -0.37481
H         -5.40262        4.26020        1.19469
H         -4.14971        0.66349       -0.16332
C         -5.17725        2.06781        1.14956
C         -3.96141       -0.08632        1.85603
H         -3.14301        4.13060        1.99918
H         -5.38712        2.06650        2.22801
H         -6.11484        1.75366        0.66625
H         -3.12023       -0.74277        1.62309
H         -3.80830        0.29581        2.86701
H         -4.87125       -0.69101        1.86293
C         -1.15563       -3.97977        0.19796
C         -1.10848       -3.35059        1.47104
C         -0.71002       -2.02542        1.53304
C         -0.44883       -1.31169        0.39286
C         -0.62270       -1.87916       -0.84128
C         -1.01301       -3.19865       -0.97917
O         -1.25819       -5.39148        0.10369
C         -1.47671       -4.05365        2.78855
H         -0.58743       -1.53713        2.48413
H         -0.43154       -1.27198       -1.70923
C         -1.27245       -3.72113       -2.40158
C          4.48535        0.74953       -0.70958
C          3.80252       -0.48189       -0.87616
C          2.47195       -0.54623       -0.50176
C          1.84180        0.52514        0.07442
C          2.52276        1.68696        0.32635
C          3.85992        1.81683       -0.01421
O          5.77803        0.92590       -1.27085
C          4.45896       -1.72589       -1.49489
H          1.89944       -1.44007       -0.67445
H          1.98813        2.49912        0.78821
C          4.59977        3.11527        0.34443
C         -2.40961       -3.14196        3.61613
C         -2.23156       -5.37419        2.55685
C         -0.19660       -4.32825        3.59478
C         -2.14898       -2.70432       -3.16697
C          0.06823       -3.88348       -3.13754
C         -2.02851       -5.06071       -2.40476
C          0.00630       -6.03334        0.10257
H         -1.91901       -2.21458        3.90697
H         -3.30257       -2.88790        3.04604
H         -2.72782       -3.64111        4.53103
H         -2.56659       -5.80593        3.49968
H         -3.10564       -5.21169        1.92720
H         -1.59871       -6.10923        2.06525
H         -0.42986       -4.81052        4.54371
H          0.48176       -4.97866        3.04585
H          0.33391       -3.40142        3.81097
H         -2.41451       -3.08477       -4.15286
H         -3.07204       -2.50624       -2.62295
H         -1.63558       -1.75562       -3.31400
H          0.60329       -2.93552       -3.18532
H          0.71040       -4.60229       -2.63208
H         -0.08766       -4.23186       -4.15813
H         -2.28569       -5.36434       -3.41925
H         -1.42730       -5.85377       -1.96658
H         -2.94989       -4.98307       -1.82865
H         -0.13675       -7.10943        0.00230
H          0.60934       -5.67093       -0.72848
H          0.53187       -5.82554        1.03317
C          5.76668        1.42862       -2.60114
C          5.96141       -1.78353       -1.16573
C          3.82364       -3.01768       -0.92937
C          4.24755       -1.70422       -3.01646
C          6.09125        2.84782        0.61720
C          4.44361        4.12338       -0.80408
C          4.01320        3.73887        1.63154
H          6.41296       -2.69607       -1.55413
H          6.49569       -0.94210       -1.59953
H          6.11904       -1.75896       -0.08799
H          4.37162       -3.89749       -1.26586
H          3.83696       -3.01169        0.16021
H          2.79291       -3.13980       -1.25893
H          4.69890       -0.82249       -3.46479
H          4.68804       -2.58388       -3.48503
H          3.18467       -1.68941       -3.25674
H          6.59808        2.48093       -0.27176
H          6.60084        3.75720        0.93474
H          6.20987        2.10090        1.40143
H          4.86543        3.73651       -1.72849
H          3.39121        4.34002       -0.98590
H          4.94658        5.06164       -0.57140
H          3.99165        3.00925        2.44069
H          3.00093        4.10881        1.47588
H          4.61547        4.58551        1.96033
H          4.74179        1.59489       -2.93551
H          6.31993        2.36673       -2.64227
H          6.25508        0.71651       -3.26606
