45
-71.81494214
C          1.23291        0.72038        2.54271
P          1.25163        0.66137        0.71958
P         -1.34524        0.29445       -1.08070
C         -1.54700       -0.07225       -2.85604
Cl         1.26515       -2.45414        1.43615
H          1.79137        1.58422        2.89160
H         -0.60489        0.08847       -3.37248
Cl        -1.22230       -2.83812       -0.81948
C          0.41728        2.10509        0.02853
C         -0.67732        1.94171       -0.79159
C         -1.31697        3.04045       -1.32719
C         -0.84838        4.31204       -1.04639
C          0.24671        4.47764       -0.22082
C          0.87860        3.37244        0.32168
H         -2.18558        2.89700       -1.94988
H         -1.34406        5.17256       -1.46470
H          0.60789        5.46771        0.00391
H          1.72744        3.49044        0.97616
Pd         0.01395       -1.19153        0.06772
H         -2.30308        0.57711       -3.28804
H          1.68703       -0.18022        2.94598
H         -1.84853       -1.10727       -2.98960
C         -5.07404       -0.19794        1.47442
C         -5.06050       -0.72889        0.19929
C         -3.94091       -0.58017       -0.59923
C         -2.84761        0.10214       -0.11730
C         -2.85225        0.62731        1.15583
C         -3.97116        0.47964        1.95584
H         -5.94600       -0.31626        2.09676
H         -5.91914       -1.26373       -0.17218
H         -3.91218       -1.00259       -1.59030
H         -1.97911        1.14815        1.51619
H         -3.97955        0.88982        2.95228
C          5.53192        0.28438       -0.80499
C          4.94762       -0.75122       -0.10365
C          3.64739       -0.62650        0.34870
C          2.93830        0.52741        0.10544
C          3.51702        1.55841       -0.60070
C          4.81718        1.43868       -1.05685
H          6.54526        0.19004       -1.15985
H          5.50026       -1.65653        0.08690
H          3.16697       -1.43529        0.87358
H          2.94913        2.45123       -0.80076
H          5.27102        2.24560       -1.60848
H          0.21010        0.79062        2.90153
