111
-148.55209361
P         -1.97103        2.39896        1.38981
P         -0.01903        0.04119        0.54395
C         -1.05183        1.49122        2.65809
C         -0.23552        0.44485        2.28825
C         -1.59145        4.20593        1.45774
C         -0.75255        4.61689        0.26701
C         -1.16656        1.84045        3.98808
H         -1.79187        2.67316        4.26686
C         -0.47431        1.12429        4.94942
H         -0.56466        1.39405        5.98896
C          0.32971        0.06347        4.57826
H          0.86623       -0.49597        5.32682
C          0.45098       -0.27637        3.24260
H          1.07926       -1.09792        2.93503
Pd        -1.59920        1.28659       -0.59868
Cl        -3.09725        2.70497       -1.48679
Cl        -1.21222        0.08843       -2.45747
C         -2.98684        4.85637        1.51611
C         -3.80021        2.43690        1.68069
H          0.19453        4.07181        0.24120
H         -1.27760        4.40399       -0.66625
H         -0.52931        5.68630        0.28508
H         -3.28775        5.13480        0.49677
H         -2.94706        5.80047        2.08029
H         -4.26144        2.25535        0.70078
C         -4.04725        3.89163        2.12005
C         -4.24314        1.38541        2.67585
H         -1.04801        4.37149        2.39733
H         -4.00851        3.94256        3.21681
H         -5.06580        4.20614        1.84601
H         -3.78261        1.55039        3.65070
H         -5.32620        1.40157        2.81755
H         -3.95913        0.38372        2.34558
C         -1.02199       -4.31781       -0.28940
C         -1.97980       -3.47010        0.32412
C         -1.62011       -2.15928        0.59302
C         -0.39715       -1.67256        0.21207
C          0.48995       -2.45596       -0.47792
C          0.19301       -3.77424       -0.77958
O         -1.26555       -5.71392       -0.38455
C         -3.38648       -3.95455        0.70851
H         -2.29393       -1.49453        1.10654
H          1.42373       -2.01845       -0.78437
C          1.18684       -4.59051       -1.62081
C          4.11762        1.15129       -1.02074
C          3.86885        1.18489        0.37538
C          2.60813        0.83186        0.82705
C          1.60205        0.52444       -0.05145
C          1.81073        0.59972       -1.40328
C          3.04406        0.94780       -1.92428
O          5.44438        1.28620       -1.50943
C          4.95159        1.56691        1.39682
H          2.39628        0.78580        1.88007
H          0.98125        0.37957       -2.05148
C          3.19965        1.07959       -3.44747
C         -4.39875       -2.78756        0.65150
C         -3.88815       -5.03076       -0.27145
C         -3.35974       -4.51181        2.13958
C          1.96108       -3.66971       -2.59178
C          2.19497       -5.28201       -0.69102
C          0.45475       -5.63550       -2.48224
C         -0.79666       -6.46144        0.73042
H         -4.21213       -2.05397        1.43414
H         -4.35261       -2.28123       -0.31238
H         -5.41671       -3.15079        0.79067
H         -4.91126       -5.32581       -0.03990
H         -3.86565       -4.65742       -1.29473
H         -3.27071       -5.92461       -0.22913
H         -4.34883       -4.85275        2.44442
H         -2.67441       -5.35195        2.22246
H         -3.03369       -3.74734        2.84451
H          2.56715       -4.25614       -3.28195
H          1.27257       -3.06478       -3.18132
H          2.63801       -3.00192       -2.06086
H          1.69534       -5.95715       -0.00040
H          2.91989       -5.86091       -1.26274
H          2.74060       -4.54693       -0.09975
H          1.15136       -6.16836       -3.12894
H         -0.05164       -6.37369       -1.86530
H         -0.29421       -5.15605       -3.11169
H         -0.07048       -7.20165        0.39496
H         -0.33139       -5.80097        1.46321
H         -1.63060       -6.98853        1.19358
C          6.13433        0.05159       -1.65791
C          5.72402        0.30666        1.81473
C          5.91910        2.61220        0.81240
C          4.31594        2.19636        2.65757
C          4.27137        2.12412       -3.80821
C          3.56982       -0.28753       -4.04182
C          1.87545        1.55380       -4.08977
H          5.05129       -0.42959        2.25406
H          6.21110       -0.15807        0.96089
H          6.49123        0.54512        2.55095
H          6.46956        2.21239       -0.03569
H          5.37377        3.49191        0.47225
H          6.64784        2.93143        1.55704
H          3.73974        1.46767        3.22590
H          5.08454        2.58588        3.32477
H          3.65684        3.02149        2.38876
H          4.33476        2.26423       -4.88700
H          4.03693        3.08640       -3.35431
H          5.25486        1.82141       -3.45781
H          4.49878       -0.66355       -3.61972
H          2.79062       -1.01993       -3.83404
H          3.69169       -0.22342       -5.12274
H          1.09859        0.79377       -4.02289
H          2.01548        1.77443       -5.14763
H          1.51119        2.45876       -3.60428
H          5.50509       -0.77794       -1.33273
H          6.41158       -0.09042       -2.70226
H          7.04737        0.07044       -1.06300
