111
-148.55388539
P         -2.75008        1.87757       -0.31788
P          0.08402        0.60197        0.22723
C         -1.89257        2.22905        1.24190
C         -0.62638        1.72449        1.44517
C         -3.73296        3.34180       -0.88312
C         -3.02052        4.13440       -1.95703
C         -2.49242        2.99402        2.22225
H         -3.49096        3.36927        2.07079
C         -1.81565        3.25896        3.40040
H         -2.28376        3.85607        4.16592
C         -0.54330        2.75779        3.59776
H         -0.01789        2.96176        4.51621
C          0.05130        1.98291        2.61850
H          1.03540        1.56660        2.76495
Pd        -1.18880        0.85775       -1.68909
Cl        -2.48489        1.35483       -3.45040
Cl         0.38174       -0.16608       -2.92745
C         -5.06342        2.70086       -1.31643
C         -4.09783        0.61325       -0.18110
H         -2.84763        3.52392       -2.84321
H         -3.60671        5.00244       -2.26723
H         -2.04755        4.48835       -1.60843
H         -4.99694        2.43615       -2.38085
H         -5.88419        3.43066       -1.24255
H         -3.91161       -0.11579       -0.98118
C         -5.37330        1.42451       -0.48214
C         -4.08647       -0.06199        1.17341
H         -3.89142        3.96687        0.00466
H         -5.83936        1.71536        0.46925
H         -6.11653        0.79368       -0.99275
H         -3.14482       -0.58673        1.34614
H         -4.20362        0.67178        1.97302
H         -4.89808       -0.78744        1.26562
C         -1.21643       -3.63196        1.29619
C         -0.73008       -3.34745       -0.00736
C         -0.35465       -2.04714       -0.29377
C         -0.37868       -1.07226        0.66728
C         -0.72005       -1.37165        1.95972
C         -1.10421       -2.65246        2.31892
O         -1.88856       -4.85457        1.55241
C         -0.59102       -4.39481       -1.12405
H         -0.05264       -1.77008       -1.28914
H         -0.69882       -0.58407        2.69301
C         -1.37346       -2.92808        3.80737
C          4.62133        0.87247       -0.02330
C          3.82828        1.52183       -1.00422
C          2.44969        1.45971       -0.88200
C          1.86351        0.72094        0.11156
C          2.62423        0.00246        0.99687
C          4.00752        0.02857        0.93694
O          6.02476        1.08811        0.01488
C          4.44056        2.28463       -2.18981
H          1.80989        1.97879       -1.57449
H          2.11585       -0.59063        1.73777
C          4.81494       -0.84119        1.91330
C         -1.68106       -4.15825       -2.18273
C          0.79694       -4.25345       -1.78790
C         -0.69204       -5.83465       -0.59206
C         -2.69097       -2.25176        4.22184
C         -1.44621       -4.43234        4.12138
C         -0.21762       -2.34608        4.65122
C         -3.28340       -4.77248        1.31080
H         -2.67565       -4.26089       -1.75295
H         -1.60337       -3.15667       -2.60475
H         -1.59237       -4.87390       -2.99957
H          1.58889       -4.33521       -1.04397
H          0.95267       -5.03355       -2.53255
H          0.90832       -3.29607       -2.29408
H          0.02899       -6.00012        0.20770
H         -1.68335       -6.03935       -0.19470
H         -0.49720       -6.55990       -1.38174
H         -3.53050       -2.64283        3.65006
H         -2.89804       -2.41774        5.27870
H         -2.64690       -1.17600        4.05417
H         -0.54906       -4.94168        3.77124
H         -1.54008       -4.60599        5.19311
H         -2.30271       -4.89523        3.63706
H          0.73872       -2.75526        4.32652
H         -0.16385       -1.26155        4.57203
H         -0.34636       -2.58841        5.70581
H         -3.46765       -4.51118        0.26997
H         -3.74319       -5.73698        1.52724
H         -3.72913       -4.00983        1.94747
C          6.42029        2.19581        0.81386
C          3.49716        2.23463       -3.41382
C          4.65698        3.75313       -1.79533
C          5.77367        1.65041       -2.62695
C          6.12997       -1.31834        1.27070
C          5.10941       -0.03598        3.18779
C          4.01830       -2.10775        2.30355
H          3.98298        2.65307       -4.29491
H          3.21405        1.20762       -3.64316
H          2.58820        2.81042       -3.24682
H          5.08144        4.32110       -2.62280
H          3.71311        4.21972       -1.51441
H          5.33297        3.83807       -0.94788
H          5.63656        0.59604       -2.86464
H          6.17402        2.14823       -3.50975
H          6.52271        1.72049       -1.84213
H          5.93125       -1.85229        0.34204
H          6.78520       -0.48183        1.04056
H          6.67225       -1.98777        1.93798
H          4.18275        0.28068        3.66605
H          5.67307       -0.63226        3.90488
H          5.68835        0.85698        2.96478
H          3.14815       -1.86569        2.91205
H          4.63653       -2.78896        2.88777
H          3.67896       -2.64152        1.41611
H          7.08940        1.85562        1.60404
H          6.95914        2.91632        0.19883
H          5.54744        2.67635        1.25758
