64
-97.21317751
Cl        -1.65059       -1.28496       -2.53079
Cl         1.63718       -1.41290       -2.82939
P          1.95501       -0.63897        0.21507
C          2.14845       -2.32264        0.96241
C          3.74428       -0.23073       -0.08313
P         -1.29718       -0.12736        0.44102
C          1.28241        0.57793        1.40474
C         -0.14370        0.81752        1.50482
C         -0.32882        1.95101        2.39879
C          0.97367        2.37338        2.88364
C          1.97499        1.52058        2.26941
H         -1.28895        2.35831        2.72186
H          1.16508        3.18068        3.59435
Pd         0.14165       -0.92270       -1.24077
H          3.05538        1.58156        2.41537
C         -5.03381        2.15818       -0.84822
C         -4.89012        0.81793       -1.14560
C         -3.74984        0.14263       -0.74870
C         -2.75749        0.80418       -0.06146
C         -2.90548        2.13915        0.24136
C         -4.04155        2.82043       -0.15384
H         -5.92025        2.68724       -1.15820
H         -5.66223        0.29811       -1.68871
H         -3.62529       -0.90262       -0.98099
H         -2.12784        2.65100        0.77930
H         -4.15105        3.86683        0.07978
C         -2.64645       -3.93927        2.50942
C         -2.40557       -2.80023        3.25330
C         -2.00274       -1.63691        2.62180
C         -1.84239       -1.62538        1.25557
C         -2.08756       -2.75468        0.50958
C         -2.49007       -3.91867        1.13712
H         -2.95993       -4.84587        3.00091
H         -2.52957       -2.81684        4.32365
H         -1.80498       -0.73930        3.18618
H         -1.97154       -2.71302       -0.56155
H         -2.68229       -4.80561        0.55603
C          4.12439       -0.28948       -1.54652
H          3.90913        0.77933        0.31406
C          4.47749       -1.28733        0.76633
H          4.65337       -0.89763        1.77974
C          3.65975       -2.60320        0.85507
H          5.47449       -1.47707        0.34247
C          1.63327       -2.32677        2.38534
H          1.56969       -3.01848        0.33957
H          3.98487       -3.20495        1.71595
H          3.86476       -3.22014       -0.03187
H          2.18447       -1.60781        2.99474
H          0.57847       -2.04935        2.42680
H          1.74178       -3.30985        2.84954
H          3.93115       -1.28435       -1.95054
H          3.55385        0.42245       -2.14457
H          5.18505       -0.07436       -1.69324
Fe         0.87224        2.47935        0.84156
C          2.24702        3.19325       -0.49983
C          1.42925        4.26404        0.04571
C          0.04003        3.99734       -0.28849
C         -0.00465        2.72892       -0.99327
C          1.35226        2.23532       -1.12078
H          3.33638        3.12551       -0.45476
H          1.80213        5.15117        0.56323
H         -0.81351        4.63826       -0.05693
H         -0.89342        2.25442       -1.41414
H          1.64356        1.33466       -1.66407
