87
-129.18359661
P         -1.50481       -0.15096       -0.31610
P          1.71995        0.24029        0.15064
C         -1.06872        1.00903       -1.61579
C          1.51045       -0.87456       -1.25991
C         -0.02807        0.69253       -2.47943
C          0.31731        1.61084       -3.49155
C         -0.40305        2.78833       -3.60770
C         -1.44021        3.07725       -2.74587
C         -1.77039        2.18205       -1.74780
C          2.14618       -2.08883       -1.14818
C          1.97141       -3.06567       -2.10842
C          1.13546       -2.82710       -3.17658
C          0.47474       -1.61819       -3.30798
C          0.67814       -0.60936       -2.34619
Cl         1.11602       -0.04353        3.38786
Cl        -1.64459       -1.49350        2.66598
H         -1.98801        3.99977       -2.84717
H         -2.58351        2.39626       -1.07468
H          2.77905       -2.27923       -0.29706
H          2.47379       -4.01438       -2.01351
H         -0.13755        3.48728       -4.38262
H          0.97903       -3.59125       -3.91906
C         -2.63169       -4.13171       -2.18971
C         -1.71316       -4.11072       -1.14909
C         -1.39085       -2.88763       -0.57408
C         -1.97553       -1.72826       -1.02732
C         -2.89091       -1.75732       -2.05300
C         -3.22307       -2.96612       -2.63618
H         -2.87823       -5.07254       -2.65158
C         -1.04461       -5.35841       -0.69069
H         -0.67035       -2.84547        0.22515
H         -3.32845       -0.83435       -2.40028
H         -3.93524       -2.99634       -3.44443
C         -4.95340        1.50169        2.16674
C         -3.77537        2.21476        2.06639
C         -2.73172        1.71691        1.31048
C         -2.87487        0.51738        0.65283
C         -4.04617       -0.19625        0.75531
C         -5.10256        0.28204        1.52116
H         -5.76918        1.88742        2.75411
H         -3.66759        3.15668        2.57890
H         -1.80667        2.26203        1.22524
H         -4.14025       -1.14014        0.24617
C         -6.37496       -0.48400        1.61629
C          5.69811       -0.58857        2.20844
C          4.63104       -1.43798        2.42312
C          3.41715       -1.18905        1.81134
C          3.27804       -0.09464        0.98952
C          4.34085        0.75261        0.77427
C          5.56670        0.52329        1.38838
H          6.64603       -0.78268        2.68079
H          4.74215       -2.29264        3.07016
H          2.57204       -1.83610        1.98556
H          4.21924        1.60365        0.12610
C          6.72143        1.42832        1.13790
C          1.22770        4.68870       -0.63644
C          2.02993        3.93609       -1.47184
C          2.19692        2.58454       -1.23475
C          1.55739        1.99969       -0.16761
C          0.78757        2.75389        0.68811
C          0.60374        4.11228        0.46137
H          1.08218        5.73783       -0.82983
H          2.51436        4.39803       -2.31640
H          2.80467        1.97779       -1.88691
H          0.35212        2.29007        1.55678
C         -0.27520        4.91860        1.35123
Pd        -0.06576       -0.38851        1.51350
C          1.44158        1.34732       -4.43187
C         -0.44794       -1.42182       -4.46103
H          1.06726        1.10571       -5.42741
H          2.08728        2.22226       -4.52013
H          2.06020        0.51559       -4.09293
H         -1.07141       -2.30407       -4.61298
H         -1.11564       -0.57484       -4.30017
H          0.11037       -1.24324       -5.38071
H         -1.68646       -6.22781       -0.83968
H         -0.11747       -5.52447       -1.24115
H         -0.80022       -5.30459        0.37121
H         -7.04932       -0.21838        0.80098
H         -6.19028       -1.55802        1.56484
H         -6.88741       -0.28164        2.55784
H          7.30872        1.08056        0.28689
H          6.38551        2.44379        0.92277
H          7.38043        1.47500        2.00605
H         -0.33287        4.48161        2.34921
H          0.10049        5.93731        1.45660
H         -1.28779        4.97224        0.94861
