111
-148.54905988
P         -2.43787        2.40130        0.33310
P         -0.07848        0.28137        0.53599
C         -1.84096        1.86706        1.95748
C         -0.83330        0.93127        2.03887
C         -2.50271        4.24712        0.24112
C         -1.64281        4.75982       -0.89297
C         -2.38933        2.39013        3.11093
H         -3.15921        3.14110        3.04114
C         -1.94158        1.95443        4.34615
H         -2.37095        2.36081        5.24732
C         -0.94892        0.99668        4.42488
H         -0.60474        0.65207        5.38612
C         -0.39339        0.48287        3.26684
H          0.37985       -0.26849        3.31069
Pd        -1.33223        1.11032       -1.23324
Cl        -2.37053        2.25898       -2.85338
Cl        -0.24875       -0.32117       -2.58774
C         -4.00834        4.54439        0.07740
C         -4.21333        1.99121       -0.00817
H         -1.64993        5.85143       -0.94063
H         -0.60611        4.43135       -0.78560
H         -2.00825        4.38674       -1.85086
H         -4.13877        5.43371       -0.55614
H         -4.44579        4.80973        1.05104
H         -4.21222        1.23381       -0.80419
C         -4.77856        3.33228       -0.51835
C         -4.91465        1.45870        1.22319
H         -2.12738        4.62090        1.20365
H         -5.84994        3.39608       -0.27809
H         -4.71689        3.36780       -1.61610
H         -4.38947        0.59572        1.63837
H         -4.96077        2.22168        2.00154
H         -5.94084        1.15662        1.00095
C         -0.97325       -4.14341       -0.01655
C          0.37600       -3.71311        0.06630
C          0.62292       -2.36231        0.23959
C         -0.40461       -1.47054        0.39574
C         -1.70808       -1.89176        0.41566
C         -2.02619       -3.22972        0.24784
O         -1.26986       -5.47932       -0.39717
C          1.56714       -4.67306       -0.07930
H          1.62933       -1.98314        0.23375
H         -2.47906       -1.15151        0.54684
C         -3.50093       -3.65708        0.30639
C          4.41530        0.98907        0.23225
C          3.72742        1.41138        1.39887
C          2.36204        1.19098        1.47290
C          1.67368        0.64974        0.41806
C          2.31889        0.35367       -0.75381
C          3.68235        0.54003       -0.89506
O          5.83540        0.98017        0.20653
C          4.44559        2.06353        2.59081
H          1.81748        1.43168        2.36781
H          1.72975       -0.03817       -1.56385
C          4.34329        0.21531       -2.24351
C          1.94515       -4.78994       -1.56386
C          2.79502       -4.14421        0.69787
C          1.23433       -6.06072        0.49759
C         -3.64377       -5.08375        0.86636
C         -4.30377       -2.72367        1.24105
C         -4.10901       -3.57334       -1.10213
C         -1.41374       -5.66510       -1.79984
H          2.19559       -3.81243       -1.97497
H          2.80621       -5.44423       -1.69772
H          1.12328       -5.19242       -2.15048
H          3.20016       -3.23946        0.24688
H          2.53406       -3.92522        1.73293
H          3.59611       -4.88302        0.70409
H          2.09795       -6.72338        0.44740
H          0.92919       -5.97935        1.54030
H          0.42393       -6.53482       -0.05030
H         -3.16837       -5.81491        0.21749
H         -3.17958       -5.15802        1.84920
H         -4.69251       -5.36305        0.96439
H         -5.31369       -3.10367        1.39360
H         -3.82462       -2.64432        2.21655
H         -4.40010       -1.72352        0.82182
H         -5.16139       -3.85572       -1.09084
H         -4.03540       -2.55864       -1.49297
H         -3.59197       -4.23153       -1.79573
H         -1.25960       -4.72197       -2.32581
H         -0.68776       -6.39961       -2.14798
H         -2.41139       -6.04548       -2.01834
C          6.41469       -0.23966        0.65286
C          4.89828        0.97108        3.57136
C          5.65619        2.89197        2.12340
C          3.49831        3.03215        3.33516
C          3.35643        0.46244       -3.40779
C          5.56652        1.11569       -2.49330
C          4.75903       -1.26358       -2.26121
H          5.40183        1.40551        4.43459
H          4.04378        0.39855        3.93152
H          5.58585        0.27533        3.09654
H          6.12561        3.40720        2.96106
H          6.41200        2.26327        1.65933
H          5.34999        3.64033        1.39321
H          2.69240        2.50122        3.83969
H          4.03892        3.59133        4.09850
H          3.05709        3.75000        2.64418
H          2.53501       -0.25235       -3.39999
H          2.93685        1.46659       -3.35418
H          3.85880        0.36032       -4.36935
H          5.99694        0.92821       -3.47668
H          5.28576        2.16705       -2.44063
H          6.34519        0.94152       -1.75499
H          3.89184       -1.90793       -2.12026
H          5.46741       -1.48450       -1.46643
H          5.22444       -1.52726       -3.21054
H          5.63685       -0.94739        0.94256
H          7.01978       -0.67090       -0.14444
H          7.06499       -0.04492        1.50550
