105
-153.06327629
Cl         0.05485        2.08568        3.04336
Pd        -0.44910        1.35569        0.97425
P         -1.08951        0.51987       -1.14038
N         -0.64382       -0.97111       -1.96794
C          0.23797       -1.98972       -1.61117
C          0.34839       -2.47697       -0.28441
C          1.27622       -3.50284       -0.00212
C          1.35703       -4.05112        1.40358
C          2.57947       -4.94204        1.67815
C          2.82588       -5.91356        0.52112
C          3.06014       -5.14379       -0.78639
C          2.05337       -4.04771       -1.02875
C          1.89526       -3.57958       -2.32686
C          1.00405       -2.58011       -2.61505
H          0.90412       -2.21765       -3.62332
H          2.49564       -4.00632       -3.11247
H          4.06310       -4.70081       -0.77998
H          3.67203       -6.57955        0.74251
H          3.46612       -4.30995        1.81409
H          1.35440       -3.21283        2.10890
C         -0.66353       -2.10754        0.73563
C         -0.26413       -1.49522        1.95424
C         -1.21220       -1.35648        2.97217
C         -2.50210       -1.78665        2.80031
C         -2.91407       -2.37818        1.61237
C         -4.33927       -2.86778        1.51874
C         -4.78309       -3.25086        0.09785
C         -3.68574       -4.04072       -0.61988
C         -2.39458       -3.21463       -0.71561
C         -1.99475       -2.53736        0.57334
H         -1.56827       -3.85152       -1.05521
H         -4.02236       -4.35838       -1.61693
H         -5.00581       -2.34253       -0.47512
H         -5.00527       -2.09973        1.93142
H         -3.21645       -1.66942        3.59763
H         -0.91851       -0.88340        3.89276
N          1.02930       -0.98952        2.15373
P          1.61353        0.22292        1.01727
C          2.60608       -0.33549       -0.35415
C          2.41692        0.25574       -1.57842
C          3.22281       -0.10349       -2.64316
C          4.22532       -1.05066       -2.47951
C          4.42105       -1.60907       -1.22280
C          3.61205       -1.25021       -0.15954
H          3.75762       -1.67741        0.81997
H          5.20953       -2.32849       -1.08278
C          5.09766       -1.43678       -3.62232
H          3.07434        0.34822       -3.60893
H          1.63360        0.98563       -1.69462
C          2.57369        1.50794        1.82356
C          3.26966        1.23307        2.97606
C          4.01208        2.23027        3.58244
C          4.05931        3.50678        3.03801
C          3.36546        3.75739        1.86178
C          2.62449        2.75911        1.25562
H          2.08195        2.95117        0.34282
H          3.40742        4.74000        1.42383
C          4.87379        4.57560        3.67963
H          4.56047        2.02197        4.48522
H          3.23726        0.24006        3.39413
H          1.16660       -0.54755        3.05349
H         -0.91746       -0.88510       -2.93883
C         -0.63640        1.90901       -2.19485
C         -0.95326        3.19134       -1.81554
C         -0.59485        4.26080       -2.61329
C          0.09088        4.05488       -3.80220
C          0.38930        2.75344       -4.18121
C          0.02605        1.68672       -3.37988
H          0.27189        0.67988       -3.67238
H          0.90921        2.58065       -5.10808
C          0.46046        5.20357       -4.67481
H         -0.84684        5.26450       -2.31623
H         -1.48548        3.34944       -0.89288
C         -2.88573        0.49525       -1.09636
C         -3.55930        0.70922       -2.27570
C         -4.94280        0.69061       -2.29299
C         -5.66061        0.46977       -1.12563
C         -4.96246        0.24777        0.05275
C         -3.58006        0.25043        0.06281
H         -3.03522        0.07723        0.97688
H         -5.50894        0.07465        0.96383
C         -7.14879        0.42717       -1.14247
H         -5.47352        0.85174       -3.21571
H         -2.99949        0.89184       -3.17976
Cl        -2.33878        2.58352        0.98253
H          3.04970       -5.83321       -1.64037
H          2.46013       -5.48763        2.62488
H          1.95462       -6.57073        0.40630
H          0.43680       -4.61052        1.60961
H         -3.48455       -4.96713       -0.06742
H         -2.50911       -2.44467       -1.48740
H         -4.44998       -3.73367        2.18247
H         -5.72272       -3.82079        0.12099
H          4.57279       -1.32773       -4.57247
H          5.99095       -0.81170       -3.65675
H          5.41645       -2.47682       -3.53884
H          5.89081        4.57738        3.28519
H          4.44102        5.56078        3.50031
H          4.93130        4.43187        4.75946
H          1.37547        4.99646       -5.23157
H         -0.33172        5.41357       -5.39472
H          0.62888        6.10673       -4.08657
H         -7.56272        0.79266       -0.20166
H         -7.55202        1.04743       -1.94413
H         -7.50524       -0.59273       -1.29360
