171
-217.83760207
P         -1.68654        0.67883        0.29505
P          1.49436       -0.18009       -0.28153
C         -0.92810        1.91194       -0.78325
C          0.64011       -0.71243       -1.77443
C         -0.24098        1.61004       -1.95332
C          0.41035        2.65242       -2.63922
C          0.32289        3.94635       -2.15393
C         -0.37239        4.22762       -0.99798
C         -0.98668        3.20113       -0.30766
C          0.78787       -1.99329       -2.24794
C          0.13650       -2.38558       -3.40076
C         -0.67606       -1.49161       -4.06622
C         -0.84974       -0.19901       -3.59925
C         -0.15365        0.20997       -2.44519
Cl         2.11023        1.01256        2.75847
Cl        -0.87895        0.50266        3.54223
C         -1.74841        0.73897       -4.32680
C          1.20495        2.40004       -3.87138
H         -0.42655        5.23817       -0.62731
H         -1.50848        3.39971        0.61703
H          1.40867       -2.69167       -1.71363
H          0.25926       -3.38758       -3.77796
H          0.81818        4.73836       -2.69016
H         -1.18305       -1.79475       -4.96640
C         -2.83888       -3.36922       -1.38275
C         -3.51658       -2.23378       -1.80412
C         -3.10868       -1.01111       -1.28781
C         -2.07988       -0.94080       -0.38077
C         -1.43259       -2.07895        0.04236
C         -1.79504       -3.32106       -0.46719
H         -3.14551       -4.32408       -1.76814
H         -3.60190       -0.10152       -1.58118
H         -0.63829       -1.99101        0.76153
C         -5.64623        2.39627        1.67674
C         -4.82365        1.80392        2.62669
C         -3.60373        1.29668        2.20071
C         -3.23069        1.38626        0.88409
C         -4.05192        1.98523       -0.04016
C         -5.28422        2.50242        0.33986
H         -6.59715        2.78833        1.98779
H         -2.91987        0.84520        2.89502
H         -3.71695        2.05268       -1.06137
C          3.74036       -3.70118        1.56470
C          2.81468       -3.03166        2.35259
C          2.11963       -1.97538        1.78075
C          2.35715       -1.58282        0.48350
C          3.30011       -2.24446       -0.26549
C          3.99011       -3.33517        0.24835
H          4.28937       -4.51496        1.99947
H          1.39848       -1.44407        2.37088
H          3.50885       -1.90343       -1.26411
C          4.61858        2.84083       -1.57843
C          4.45326        1.67423       -2.31688
C          3.48287        0.77344       -1.89534
C          2.73707        1.01976       -0.76799
C          2.92242        2.17187       -0.04813
C          3.86256        3.11249       -0.44372
H          5.35913        3.55176       -1.88994
H          3.29811       -0.12385       -2.46126
H          2.34034        2.33259        0.84146
Pd         0.24058        0.53618        1.59638
C         -5.34699       -0.98883       -3.05991
C         -4.69564       -2.35776       -2.77963
C         -5.76408       -3.28419       -2.16934
C         -4.19766       -2.94695       -4.11089
H         -5.72431       -0.54024       -2.14111
H         -4.63572       -0.29980       -3.51380
H         -6.18751       -1.09290       -3.74587
H         -6.62890       -3.36850       -2.82724
H         -5.37301       -4.28740       -2.00454
H         -6.10627       -2.89616       -1.21007
H         -5.01805       -3.05768       -4.81977
H         -3.44946       -2.29718       -4.56223
H         -3.74593       -3.92756       -3.96548
C         -2.15217       -5.46965        0.76484
C         -1.12794       -4.63008       -0.01921
C          0.08736       -4.36888        0.88527
C         -0.64252       -5.42014       -1.24978
H         -2.51100       -4.92228        1.63632
H         -3.01462       -5.71654        0.14655
H         -1.70906       -6.40330        1.11094
H         -0.20499       -3.85215        1.79863
H          0.56458       -5.30591        1.17097
H          0.83167       -3.76647        0.36767
H         -1.46759       -5.68044       -1.91113
H          0.07668       -4.83667       -1.82266
H         -0.15514       -6.34719       -0.94826
C         -5.50425        3.15570        4.62612
C         -5.27413        1.72981        4.09262
C         -4.21549        1.04333        4.97842
C         -6.58233        0.92289        4.18220
H         -5.80592        3.13656        5.67323
H         -4.59197        3.74683        4.54823
H         -6.28404        3.66829        4.06410
H         -4.02899        0.02200        4.64730
H         -3.27264        1.58942        4.95825
H         -4.54817        0.99829        6.01525
H         -6.91711        0.83598        5.21573
H         -7.38040        1.39726        3.61231
H         -6.44130       -0.08298        3.78707
C         -7.55192        2.35794       -0.71695
C         -6.23863        3.15990       -0.66669
C         -5.63339        3.19504       -2.08432
C         -6.52760        4.60644       -0.22535
H         -8.04525        2.34555        0.25427
H         -8.24556        2.78960       -1.43830
H         -7.36119        1.32516       -1.00812
H         -5.43246        2.18877       -2.45115
H         -6.31911        3.66973       -2.78600
H         -4.70196        3.76086       -2.09931
H         -7.18612        5.10663       -0.93528
H         -7.00874        4.63473        0.75154
H         -5.60326        5.18016       -0.16003
C          1.50736       -2.60225        4.49751
C          2.63110       -3.41981        3.82792
C          3.94612       -3.14538        4.57960
C          2.27452       -4.91377        3.93777
H          1.37770       -2.90241        5.53704
H          1.73747       -1.53701        4.49122
H          0.55483       -2.75203        3.98997
H          4.22014       -2.09345        4.50088
H          3.85109       -3.39199        5.63689
H          4.76493       -3.73585        4.16993
H          1.34245       -5.12890        3.41726
H          3.05282       -5.54277        3.50784
H          2.14958       -5.20710        4.97997
C          4.40118       -4.38605       -1.99906
C          5.02330       -4.05830       -0.62669
C          5.48748       -5.37976        0.01645
C          6.24389       -3.14153       -0.81483
H          4.13675       -3.48231       -2.54636
H          5.09846       -4.95116       -2.61730
H          3.49699       -4.98275       -1.87888
H          6.17329       -5.91090       -0.64355
H          6.01220       -5.20035        0.95444
H          4.63998       -6.03616        0.21370
H          5.95507       -2.19813       -1.27539
H          6.70633       -2.91374        0.14537
H          6.99417       -3.61225       -1.44984
C          4.43622        1.17017       -4.78504
C          5.32328        1.33249       -3.53729
C          6.06835        0.01197       -3.26750
C          6.36553        2.43131       -3.82062
H          3.68488        0.39486       -4.63981
H          3.92255        2.10160       -5.01905
H          5.03457        0.89379       -5.65306
H          6.67256        0.08845       -2.36374
H          5.36963       -0.81350       -3.13794
H          6.72979       -0.24042       -4.09611
H          7.03543        2.56499       -2.97142
H          6.97686        2.17047       -4.68449
H          5.88249        3.38444       -4.03520
C          5.11210        5.31859       -0.20343
C          4.04378        4.38461        0.39617
C          4.47870        3.99035        1.82008
C          2.70774        5.14770        0.45685
H          6.08535        4.82958       -0.24026
H          4.84052        5.62739       -1.21277
H          5.21957        6.22006        0.39972
H          4.63164        4.87315        2.44042
H          3.72763        3.36809        2.30526
H          5.41177        3.42799        1.79544
H          2.80652        6.06278        1.04032
H          2.37591        5.42012       -0.54458
H          1.92649        4.54310        0.91602
H         -1.21124        1.25488       -5.12354
H          2.16871        2.90745       -3.81230
H         -2.16084        1.49199       -3.65331
H         -2.58678        0.20804       -4.77985
H          0.68436        2.77091       -4.75541
H          1.39809        1.33616       -4.01289
