105
-153.06260214
Cl         3.00076        2.00573       -0.01835
Pd         0.84895        1.68747       -0.59110
P         -1.33011        1.23413       -1.28797
N         -1.44945       -0.38698       -0.71712
C         -0.49091       -1.28280       -1.18358
C         -0.11366       -2.34530       -0.32114
C          1.00166       -3.13729       -0.64743
C          1.46053       -4.20995        0.30796
C          2.23471       -5.33524       -0.39145
C          3.38521       -4.75101       -1.21786
C          2.87522       -3.74762       -2.26903
C          1.69779       -2.90400       -1.83708
C          1.28275       -1.88097       -2.68500
C          0.21674       -1.07955       -2.36848
H         -0.07108       -0.27303       -3.01746
H          1.82380       -1.71410       -3.60098
H          3.68891       -3.07727       -2.57386
H          4.09037       -4.24880       -0.54492
H          2.60500       -6.07089        0.33655
H          2.10057       -3.74495        1.06480
C         -1.01401       -2.69583        0.81013
C         -1.17944       -1.86171        1.94936
C         -2.02958       -2.29222        2.96758
C         -2.72223       -3.47087        2.87090
C         -2.63329       -4.26514        1.73568
C         -3.47762       -5.51603        1.67646
C         -3.21046       -6.40919        0.45390
C         -2.97843       -5.56376       -0.80167
C         -1.76926       -4.63727       -0.60843
C         -1.79854       -3.86402        0.69032
H         -0.84987       -5.23033       -0.65403
H         -3.87126       -4.95847       -1.00259
H         -4.03574       -7.11841        0.29863
H         -4.53329       -5.21922        1.68914
H         -3.37286       -3.77906        3.67196
H         -2.14696       -1.67173        3.83921
N         -0.61081       -0.60061        2.09993
P          0.73705        0.22783        1.29491
C          2.17108       -0.84060        1.41599
C          3.09357       -0.94307        0.40259
C          4.20916       -1.74283        0.56552
C          4.40778       -2.44761        1.74539
C          3.46089       -2.33893        2.75441
C          2.34608       -1.53574        2.58889
H          1.60612       -1.44848        3.36904
H          3.60007       -2.88995        3.66875
C          5.59260       -3.33255        1.91937
H          4.93420       -1.82194       -0.22630
H          2.93933       -0.39643       -0.51341
C          1.02489        1.62685        2.39063
C         -0.00318        2.52630        2.54035
C          0.15904        3.62825        3.35973
C          1.35180        3.83049        4.04024
C          2.38099        2.91372        3.87012
C          2.21587        1.81277        3.05028
H          3.01691        1.10596        2.91036
H          3.31636        3.07167        4.37926
C          1.54077        5.03357        4.89697
H         -0.63969        4.34195        3.46747
H         -0.92403        2.37389        2.00136
H         -0.76486       -0.13099        2.98352
H         -1.37935       -0.32133        0.29747
C         -1.94493        1.29820       -2.96786
C         -1.37358        2.12500       -3.90435
C         -1.86411        2.14515       -5.19584
C         -2.93591        1.33904       -5.55583
C         -3.49303        0.50128       -4.59844
C         -2.99897        0.48368       -3.30582
H         -3.42025       -0.16989       -2.55790
H         -4.31370       -0.13969       -4.87167
C         -3.44895        1.34054       -6.95388
H         -1.41490        2.78696       -5.93438
H         -0.53988        2.74372       -3.61815
C         -2.21326        2.34655       -0.20236
C         -1.91023        3.68701       -0.22836
C         -2.50993        4.54323        0.67657
C         -3.40315        4.05653        1.62198
C         -3.69752        2.69925        1.62885
C         -3.09792        1.84442        0.72166
H         -3.30588        0.78673        0.73913
H         -4.39366        2.31463        2.35449
C         -4.05530        4.97742        2.59352
H         -2.27515        5.59376        0.66314
H         -1.17066        4.04402       -0.92785
Cl         0.95884        3.34086       -2.11075
H          2.58937       -4.28829       -3.17931
H          1.55633       -5.88794       -1.05312
H          3.96381       -5.55391       -1.69597
H          0.60921       -4.61275        0.86837
H         -2.84825       -6.20263       -1.68666
H         -1.70228       -3.92724       -1.44259
H         -3.32414       -6.08569        2.60193
H         -2.32342       -7.02766        0.64088
H          6.06414       -3.16632        2.88892
H          5.30377       -4.38299        1.86115
H          6.34309       -3.14781        1.14960
H          1.94875        5.86161        4.31579
H          0.59478        5.36066        5.33082
H          2.22814        4.82788        5.71870
H         -4.51073        1.09203       -6.98422
H         -3.32560        2.32043       -7.41720
H         -2.91463        0.61036       -7.56318
H         -3.42325        5.84173        2.80243
H         -5.00635        5.34214        2.20318
H         -4.25056        4.47443        3.54168
