111
-148.55565759
P         -2.49006        2.01257        1.13052
P          0.14367        0.35717        0.56044
C         -1.40508        1.54531        2.50675
C         -0.23483        0.86599        2.24647
C         -3.19182        3.70826        1.37385
C         -2.51839        4.72563        0.47881
C         -1.74370        1.85776        3.80788
H         -2.66815        2.37392        4.00878
C         -0.90214        1.49301        4.84483
H         -1.16565        1.73652        5.86115
C          0.27293        0.81584        4.57981
H          0.92634        0.52971        5.38750
C          0.60593        0.49729        3.27546
H          1.51053       -0.04600        3.05097
Pd        -1.31680        1.52239       -0.80127
Cl        -2.97025        2.55565       -1.91051
Cl        -0.02898        1.00248       -2.56785
C         -4.69285        3.49819        1.10233
C         -4.04942        1.02039        1.03957
H         -1.44328        4.77086        0.66846
H         -2.65401        4.46882       -0.57241
H         -2.93240        5.72542        0.62880
H         -4.89184        3.70982        0.04268
H         -5.29167        4.22840        1.66772
H         -4.16225        0.72954       -0.01349
C         -5.13351        2.04245        1.43014
C         -3.97866       -0.20163        1.92936
H         -3.02911        3.96058        2.42948
H         -5.33173        1.95361        2.50715
H         -6.08538        1.79925        0.93403
H         -3.16165       -0.86090        1.62855
H         -3.80332        0.08421        2.96812
H         -4.90738       -0.77593        1.89463
C         -1.20881       -3.93428       -0.15191
C         -1.16408       -3.42886        1.17294
C         -0.76710       -2.11575        1.36235
C         -0.37245       -1.33844        0.30545
C         -0.32761       -1.85046       -0.96335
C         -0.69361       -3.15949       -1.22228
O         -1.80078       -5.19961       -0.40853
C         -1.56354       -4.27632        2.39125
H         -0.76685       -1.67711        2.34428
H         -0.02164       -1.19374       -1.75895
C         -0.54638       -3.69933       -2.65313
C          4.47900        0.80719       -0.73796
C          4.04362       -0.40146       -0.13627
C          2.71658       -0.50060        0.24769
C          1.86417        0.56545        0.12519
C          2.30878        1.77214       -0.34655
C          3.62135        1.93700       -0.75752
O          5.75448        0.87278       -1.35924
C          4.96765       -1.61298        0.06222
H          2.32091       -1.42681        0.62806
H          1.60234        2.58120       -0.41904
C          4.07322        3.31208       -1.27267
C         -1.18381       -5.75352        2.18210
C         -0.82435       -3.79477        3.66044
C         -3.07564       -4.14801        2.63045
C          0.65091       -3.02670       -3.36434
C         -0.27152       -5.21387       -2.65212
C         -1.82497       -3.38998       -3.44627
C         -3.18843       -5.13866       -0.71374
H         -0.11956       -5.84986        1.96980
H         -1.40799       -6.34532        3.06923
H         -1.73097       -6.18913        1.34959
H         -1.00699       -4.47199        4.49449
H          0.25146       -3.75478        3.49140
H         -1.16079       -2.80688        3.97215
H         -3.64205       -4.48584        1.76621
H         -3.38652       -4.74215        3.48941
H         -3.34942       -3.11107        2.82213
H          0.84144       -3.49593       -4.32920
H          0.46725       -1.97034       -3.55408
H          1.55647       -3.11417       -2.76467
H          0.61272       -5.44242       -2.05803
H         -1.10650       -5.76941       -2.23308
H         -0.10508       -5.58262       -3.66395
H         -1.74637       -3.75259       -4.47080
H         -2.69500       -3.85608       -2.98989
H         -2.00515       -2.31573       -3.48129
H         -3.74266       -5.76485       -0.01468
H         -3.54822       -4.11110       -0.64687
H         -3.36046       -5.51888       -1.72044
C          5.74911        0.48996       -2.72907
C          4.87613       -2.52787       -1.16865
C          6.42465       -1.17134        0.29038
C          4.54308       -2.42130        1.30973
C          3.29162        4.44342       -0.56672
C          5.56629        3.55202       -0.98489
C          3.80212        3.39876       -2.78253
H          3.85349       -2.87481       -1.31497
H          5.18000       -2.00513       -2.07243
H          5.51601       -3.40239       -1.05377
H          7.06614       -2.02775        0.49662
H          6.82693       -0.66229       -0.58173
H          6.49000       -0.48708        1.13565
H          3.57997       -2.90909        1.16699
H          5.26839       -3.20481        1.52810
H          4.47445       -1.77543        2.18472
H          3.69709        5.41885       -0.83455
H          2.24051        4.44625       -0.85135
H          3.35456        4.34067        0.51628
H          5.86904        4.55226       -1.29368
H          5.77321        3.44827        0.07971
H          6.19277        2.84058       -1.51690
H          4.09485        4.37129       -3.17727
H          2.74250        3.25342       -2.99183
H          4.35307        2.63541       -3.32649
H          6.11724        1.31369       -3.34047
H          6.41117       -0.36350       -2.87403
H          4.73939        0.22500       -3.04552
