111
-148.55251610
P         -1.59208        2.69004        0.45504
P         -0.30169       -0.19988        0.52526
C         -1.15702        1.93094        2.04608
C         -0.66329        0.64409        2.07828
C         -0.47370        4.12368        0.11329
C          0.37251        3.86057       -1.11398
C         -1.28413        2.64614        3.21989
H         -1.62846        3.66665        3.18645
C         -0.94369        2.05902        4.42627
H         -1.04764        2.61627        5.34296
C         -0.46375        0.76380        4.45628
H         -0.19254        0.30898        5.39477
C         -0.31190        0.05792        3.27644
H          0.09748       -0.94013        3.27798
Pd        -1.58127        0.92564       -1.04552
Cl        -3.08196        2.04664       -2.26997
Cl        -1.29275       -0.88605       -2.34786
C         -1.44510        5.31272       -0.03187
C         -3.22668        3.56132        0.49622
H         -0.25890        3.66701       -1.98358
H          1.01091        4.71524       -1.34955
H          1.01428        2.98814       -0.97610
H         -1.60596        5.50536       -1.10141
H         -0.98786        6.23134        0.36556
H         -3.67356        3.40599       -0.49406
C         -2.81542        5.03632        0.65041
C         -4.15088        3.03120        1.57182
H          0.15321        4.24091        1.00705
H         -2.75330        5.27986        1.71977
H         -3.59750        5.69571        0.24374
H         -3.72750        3.17862        2.56545
H         -5.11781        3.53895        1.55093
H         -4.32803        1.96051        1.44720
C         -0.66179       -4.73131        0.84301
C         -1.63277       -3.89603        1.45123
C         -1.47422       -2.52335        1.34943
C         -0.43759       -1.98112        0.63471
C          0.44340       -2.78459       -0.04048
C          0.33338       -4.16455        0.00654
O         -0.66860       -6.12936        1.09448
C         -2.82845       -4.45814        2.23617
H         -2.15976       -1.85156        1.83722
H          1.22403       -2.31551       -0.61262
C          1.28744       -5.02194       -0.84017
C          3.57815        1.61072       -1.03145
C          2.80316        0.78235       -1.88587
C          1.64432        0.22166       -1.37763
C          1.28852        0.38833       -0.06524
C          2.09380        1.09222        0.79133
C          3.26832        1.68005        0.35277
O          4.59895        2.43333       -1.57369
C          3.15074        0.49426       -3.35562
H          0.96626       -0.30837       -2.02367
H          1.77775        1.20946        1.81366
C          4.14538        2.38696        1.39926
C         -2.42668       -4.64709        3.70682
C         -4.02900       -3.48674        2.17471
C         -3.30354       -5.79544        1.63920
C          2.55061       -5.33842       -0.02569
C          0.60558       -6.32580       -1.29333
C          1.70427       -4.26447       -2.12106
C          0.12785       -6.52463        2.20420
H         -2.11747       -3.69902        4.14643
H         -3.25951       -5.03545        4.29249
H         -1.59597       -5.34207        3.80230
H         -4.91549       -3.93894        2.61886
H         -3.83164       -2.56665        2.72280
H         -4.26623       -3.22884        1.14290
H         -3.54570       -5.67932        0.58335
H         -2.53724       -6.56205        1.72305
H         -4.19217       -6.16071        2.15335
H          3.05624       -4.42039        0.27294
H          2.30907       -5.89204        0.87833
H          3.25136       -5.93544       -0.60879
H         -0.31490       -6.10852       -1.83416
H          1.25736       -6.90165       -1.94984
H          0.35250       -6.95708       -0.44522
H          0.82886       -3.90312       -2.66022
H          2.34255       -3.41330       -1.89116
H          2.26663       -4.91431       -2.79112
H         -0.49751       -7.02702        2.94197
H          0.89311       -7.22661        1.87350
H          0.60301       -5.65559        2.66098
C          4.12518        3.70737       -1.98000
C          4.60357        0.86516       -3.69977
C          2.99469       -1.01679       -3.63304
C          2.18785        1.27309       -4.26792
C          4.30230        1.47571        2.63695
C          5.56224        2.68051        0.87657
C          3.46838        3.70037        1.82682
H          4.76449        1.93816       -3.63043
H          5.29681        0.37855       -3.01457
H          4.85704        0.55958       -4.71463
H          3.29535       -1.25789       -4.65227
H          3.61798       -1.59683       -2.95331
H          1.96382       -1.34556       -3.51344
H          2.39686        1.07033       -5.31788
H          1.15323        0.99287       -4.07217
H          2.27543        2.34612       -4.10979
H          4.70682        0.50530        2.35069
H          4.98074        1.92163        3.36384
H          3.35188        1.30926        3.14125
H          6.03008        1.77016        0.50342
H          5.54253        3.40212        0.06366
H          6.19439        3.08989        1.66422
H          3.34271        4.37347        0.98108
H          4.06129        4.21631        2.58154
H          2.48160        3.51047        2.24824
H          3.33492        3.59544       -2.72019
H          3.72847        4.25092       -1.12453
H          4.94826        4.27448       -2.41517
