105
-153.07153664
Cl        -0.03348        1.88696        3.04986
Pd        -0.61885        1.13315        1.00313
P         -1.23512        0.48846       -1.15276
N         -0.93818       -1.06740       -1.91026
C          0.08588       -1.97651       -1.62988
C          0.32442       -2.47834       -0.32291
C          1.34656       -3.42886       -0.12418
C          1.56061       -3.99006        1.26175
C          2.44173       -5.24784        1.31361
C          3.66700       -5.09687        0.40779
C          3.23820       -4.86550       -1.04880
C          2.11978       -3.86531       -1.20337
C          1.84487       -3.38419       -2.47702
C          0.84636       -2.47057       -2.68975
H          0.65002       -2.10558       -3.68276
H          2.43450       -3.73793       -3.30583
H          4.09498       -4.53268       -1.64870
H          4.26899       -4.24620        0.75097
H          2.74640       -5.46935        2.34624
H          2.00550       -3.20624        1.88538
C         -0.62069       -2.19188        0.78293
C         -0.15134       -1.60400        1.99123
C         -1.03051       -1.51777        3.07563
C         -2.32572       -1.95389        2.97097
C         -2.80628       -2.51959        1.79640
C         -4.23800       -3.00159        1.77737
C         -4.74158       -3.46636        0.40037
C         -3.65077       -4.22910       -0.35613
C         -2.41437       -3.34171       -0.55774
C         -1.94897       -2.65350        0.70182
H         -1.58834       -3.93574       -0.96837
H         -4.02858       -4.60130       -1.31898
H         -5.04766       -2.59602       -0.19293
H         -4.88125       -2.20133        2.16497
H         -2.99117       -1.86126        3.81263
H         -0.68552       -1.06217        3.98720
N          1.12307       -1.02919        2.10028
P          1.54322        0.17442        0.88251
C          2.66232       -0.40468       -0.38350
C          2.51872        0.07044       -1.66232
C          3.42042       -0.30816       -2.63976
C          4.48223       -1.14841       -2.33106
C          4.61987       -1.60106       -1.02519
C          3.71437       -1.22240       -0.05018
H          3.82096       -1.55862        0.96887
H          5.43884       -2.25434       -0.77729
C          5.42913       -1.59308       -3.39026
H          3.30071        0.04416       -3.64993
H          1.69866        0.72986       -1.88690
C          2.37791        1.60295        1.58415
C          3.16445        1.47759        2.70360
C          3.80986        2.58913        3.21447
C          3.67020        3.82988        2.60654
C          2.88869        3.92964        1.46335
C          2.24480        2.81752        0.95287
H          1.63350        2.89256        0.06679
H          2.78565        4.88401        0.97585
C          4.37959        5.02312        3.14529
H          4.42744        2.49902        4.09173
H          3.27718        0.51276        3.17060
H          1.30944       -0.57570        2.98533
H         -1.21591       -0.94986       -2.87620
C         -0.51834        1.83173       -2.10293
C          0.08270        1.59596       -3.31672
C          0.66773        2.64055       -4.00840
C          0.64066        3.93068       -3.49577
C          0.01747        4.15153       -2.27504
C         -0.56675        3.10537       -1.58646
H         -1.07348        3.27413       -0.64910
H         -0.00681        5.14742       -1.86669
C          1.30228        5.04928       -4.22268
H          1.15678        2.45794       -4.95005
H          0.11373        0.59348       -3.70998
C         -3.01806        0.69364       -1.17704
C         -3.60643        1.48687       -2.13331
C         -4.98040        1.64544       -2.14554
C         -5.77370        1.00642       -1.20222
C         -5.15972        0.21520       -0.24150
C         -3.78644        0.05394       -0.23666
H         -3.30405       -0.55497        0.50899
H         -5.76358       -0.26524        0.50911
C         -7.24962        1.20274       -1.19012
H         -5.44486        2.27386       -2.88614
H         -2.98902        1.98490       -2.86349
Cl        -2.51554        2.32938        1.22746
H          2.91984       -5.81517       -1.49511
H          1.85545       -6.11615        0.98763
H          4.32367       -5.97467        0.48913
H          0.58192       -4.20098        1.71100
H         -3.36796       -5.12182        0.21569
H         -2.63106       -2.57647       -1.31187
H         -4.33235       -3.82353        2.49715
H         -5.64625       -4.08215        0.50297
H          5.53867       -0.83291       -4.16497
H          6.41925       -1.78920       -2.97644
H          5.07528       -2.50928       -3.86509
H          5.36284        5.12998        2.68517
H          3.81554        5.93650        2.95128
H          4.51913        4.94429        4.22432
H          0.80870        5.99992       -4.01604
H          2.34732        5.14052       -3.92337
H          1.27366        4.88947       -5.30143
H         -7.76204        0.30951       -0.82993
H         -7.52351        2.03379       -0.53881
H         -7.62703        1.42014       -2.19028
