171
-217.83949942
P         -1.67464        0.66208        0.21911
P          1.48439       -0.18355       -0.30638
C         -0.95392        1.77179       -1.01202
C          0.61475       -0.91602       -1.70593
C         -0.30582        1.34393       -2.16442
C          0.31488        2.30229       -2.98804
C          0.24116        3.64169       -2.64478
C         -0.41154        4.04861       -1.50115
C         -1.00015        3.10559       -0.68094
C          0.76484       -2.24820       -2.00250
C          0.07917       -2.80510       -3.06395
C         -0.75960       -2.01840       -3.82635
C         -0.92541       -0.67125       -3.54630
C         -0.20751       -0.10417       -2.47636
Cl         2.15424        1.24635        2.55731
Cl        -0.90026        0.63612        3.47967
C         -1.83974        0.16383       -4.37383
C          1.08125        1.91236       -4.20367
H         -0.45227        5.09366       -1.24090
H         -1.49125        3.40580        0.23306
H          1.42098       -2.85517       -1.40330
H          0.19474       -3.85226       -3.29131
H          0.71664        4.36883       -3.28134
H         -1.29389       -2.45130       -4.65490
C         -2.80366       -3.63103       -0.71552
C         -1.75512       -3.40753        0.16959
C         -1.38010       -2.09245        0.41384
C         -2.03803       -1.05131       -0.19978
C         -3.08323       -1.29347       -1.05677
C         -3.48678       -2.59243       -1.33675
H         -3.11186       -4.64005       -0.90915
H         -0.58092       -1.88190        1.10182
H         -3.61064       -0.45903       -1.48610
C         -5.64208        2.47554        1.45541
C         -5.29547        2.43820        0.10912
C         -4.06510        1.89030       -0.22992
C         -3.22337        1.40579        0.74049
C         -3.58131        1.45294        2.06241
C         -4.79997        1.99022        2.44994
H         -6.58930        2.89397        1.73599
H         -3.75567        1.84531       -1.26119
H         -2.89278        1.07843        2.79795
C          3.95574       -3.44470        1.70146
C          3.01318       -2.77827        2.47176
C          2.25167       -1.79398        1.85757
C          2.44563       -1.46933        0.53507
C          3.40502       -2.12454       -0.19891
C          4.17198       -3.13587        0.36576
H          4.54027       -4.22352        2.15574
H          1.50875       -1.26904        2.42695
H          3.54727       -1.84817       -1.22793
C          4.35001        2.92118       -1.94302
C          3.57408        3.24976       -0.83887
C          2.71551        2.28078       -0.33808
C          2.62915        1.04790       -0.93319
C          3.38336        0.74988       -2.04195
C          4.26838        1.68348       -2.56875
H          5.04679        3.64788       -2.31755
H          2.11195        2.47906        0.52862
H          3.25775       -0.21031       -2.51043
Pd         0.24122        0.65103        1.54262
C         -1.22300       -4.30806        2.44335
C         -1.06761       -4.55243        0.93085
C          0.42438       -4.60085        0.56240
C         -1.69155       -5.92102        0.59518
H         -2.27596       -4.23318        2.71408
H         -0.78520       -5.12311        3.01881
H         -0.73517       -3.38291        2.74568
H          0.91579       -3.66002        0.79921
H          0.93830       -5.39166        1.10835
H          0.55194       -4.79223       -0.50244
H         -1.19874       -6.71688        1.15360
H         -2.75006       -5.94405        0.85367
H         -1.58714       -6.15080       -0.46507
C         -4.93167       -4.32285       -2.52221
C         -4.72267       -2.82681       -2.21799
C         -4.56158       -2.08295       -3.55559
C         -5.96317       -2.29284       -1.47912
H         -5.12458       -4.88801       -1.61068
H         -5.78671       -4.46696       -3.18264
H         -4.05670       -4.74682       -3.01486
H         -5.42415       -2.24984       -4.20055
H         -4.46595       -1.00872       -3.40500
H         -3.67565       -2.43362       -4.08305
H         -5.86447       -1.22887       -1.26693
H         -6.86524       -2.43518       -2.07388
H         -6.09802       -2.80994       -0.52933
C         -6.56399        1.81539       -1.96155
C         -6.20963        2.96888       -1.00436
C         -5.47202        4.07693       -1.77959
C         -7.51758        3.55538       -0.43965
H         -7.21969        2.15923       -2.76127
H         -5.67106        1.39345       -2.42151
H         -7.07555        1.01557       -1.42667
H         -6.10366        4.48980       -2.56594
H         -5.18863        4.89020       -1.11176
H         -4.56420        3.69730       -2.24718
H         -8.15099        3.93131       -1.24308
H         -8.08601        2.79863        0.10072
H         -7.31528        4.38580        0.23657
C         -4.10875        2.86083        4.69682
C         -5.16081        2.02675        3.94188
C         -5.17358        0.58916        4.49441
C         -6.54714        2.65519        4.18008
H         -3.11531        2.42369        4.60338
H         -4.06590        3.87542        4.30142
H         -4.34705        2.92128        5.75850
H         -5.89428       -0.02445        3.95425
H         -4.19544        0.11943        4.39743
H         -5.44446        0.57908        5.54996
H         -6.78610        2.67218        5.24339
H         -6.57939        3.68294        3.81890
H         -7.32791        2.08577        3.67616
C          2.44470       -4.59349        4.10798
C          2.85866       -3.11871        3.96107
C          1.79187       -2.23625        4.64058
C          4.20311       -2.88319        4.67425
H          1.50498       -4.78226        3.59139
H          3.19665       -5.25989        3.68702
H          2.31232       -4.85914        5.15663
H          2.05241       -1.18041        4.56869
H          0.81217       -2.37965        4.18718
H          1.70280       -2.48221        5.69846
H          4.52254       -1.84776        4.55754
H          4.12145       -3.09354        5.74047
H          4.98551       -3.52269        4.26746
C          6.58786       -3.80831        0.24491
C          5.21502       -3.91804       -0.44419
C          5.34848       -3.37002       -1.87896
C          4.78533       -5.39420       -0.52089
H          6.56706       -4.23958        1.24490
H          7.35378       -4.33233       -0.32660
H          6.88942       -2.76497        0.33613
H          5.64990       -2.32273       -1.87012
H          6.10199       -3.92564       -2.43700
H          4.40772       -3.45598       -2.42257
H          5.49791       -5.97895       -1.10234
H          4.71929       -5.83795        0.47195
H          3.80723       -5.48571       -0.99319
C          5.12321        4.83538        0.32863
C          3.69095        4.64015       -0.19983
C          2.70733        4.80822        0.97567
C          3.37275        5.71483       -1.25559
H          5.23393        5.80880        0.80607
H          5.36890        4.06863        1.06314
H          5.85388        4.77328       -0.47700
H          2.91356        4.08751        1.76666
H          2.78884        5.80469        1.40929
H          1.67700        4.67426        0.64682
H          3.43196        6.71421       -0.82492
H          4.07057        5.67022       -2.09081
H          2.36716        5.57788       -1.65197
C          4.74166        0.05997       -4.46981
C          5.18916        1.34923       -3.75188
C          6.61879        1.14947       -3.21961
C          5.17786        2.49735       -4.78041
H          4.81839       -0.80608       -3.81344
H          3.71099        0.14158       -4.81415
H          5.36830       -0.13558       -5.33986
H          6.98293        2.05275       -2.73078
H          6.64847        0.34015       -2.49015
H          7.30682        0.90242       -4.02791
H          4.16748        2.68800       -5.13987
H          5.56424        3.42218       -4.35478
H          5.79771        2.25072       -5.64234
H         -2.40806        0.85542       -3.74958
H          0.58039        2.25674       -5.10958
H         -2.55321       -0.45058       -4.92410
H         -1.28094        0.75034       -5.10349
H          1.20461        0.83109       -4.27348
H          2.07718        2.35556       -4.18436
