105
-153.06092536
Cl         0.21413        3.44435        1.86011
Pd        -0.14126        1.91746        0.24856
P         -0.73213        0.24613       -1.32925
N          0.13343       -1.17107       -1.95110
C          0.22163       -2.49588       -1.53398
C         -0.09912       -2.95912       -0.22859
C          0.22720       -4.28542        0.13130
C          0.13669       -4.71060        1.57906
C         -0.02956       -6.22649        1.75296
C          1.06565       -6.97028        0.98228
C          1.02101       -6.62501       -0.51643
C          0.72673       -5.17470       -0.82358
C          0.95487       -4.71967       -2.11514
C          0.73183       -3.41075       -2.45481
H          0.95853       -3.06955       -3.45016
H          1.33784       -5.40769       -2.84994
H          1.97083       -6.89826       -0.99356
H          2.04574       -6.69381        1.39111
H         -0.02437       -6.50575        2.81610
H          1.05278       -4.38332        2.08555
C         -0.69240       -2.07837        0.81300
C          0.12980       -1.09234        1.41826
C         -0.33611       -0.40986        2.54254
C         -1.59095       -0.66169        3.03364
C         -2.43008       -1.59379        2.42972
C         -3.79951       -1.81627        3.01564
C         -4.39135       -3.18386        2.64519
C         -4.30869       -3.40863        1.13251
C         -2.85627       -3.34013        0.62937
C         -1.98688       -2.30727        1.31267
H         -2.39178       -4.32543        0.74311
H         -4.90660       -2.64270        0.62637
H         -5.42788       -3.27390        3.00010
H         -4.46422       -1.01723        2.66667
H         -1.94811       -0.11834        3.89189
H          0.28703        0.33978        2.99477
N          1.28967       -0.72300        0.74273
P          1.83380        0.89549        0.99555
C          2.91125        1.41032       -0.33484
C          3.15570        2.75088       -0.51546
C          3.89849        3.17000       -1.60434
C          4.38696        2.24919       -2.52218
C          4.13469        0.89930       -2.31559
C          3.39176        0.48124       -1.22647
H          3.17482       -0.56387       -1.07626
H          4.51597        0.17827       -3.01835
C          5.19147        2.69712       -3.69236
H          4.09250        4.21829       -1.75393
H          2.73551        3.46147        0.17924
C          2.67078        0.95501        2.57930
C          3.51016       -0.08611        2.89679
C          4.17639       -0.08649        4.10994
C          4.00841        0.95940        5.00794
C          3.14661        1.99507        4.67270
C          2.48301        1.99172        3.46097
H          1.80593        2.78682        3.20014
H          2.99613        2.80237        5.36897
C          4.70367        0.94935        6.32487
H          4.82958       -0.90277        4.36692
H          3.63065       -0.89805        2.19632
H          1.13870       -0.82761       -0.26034
H          0.34536       -0.98234       -2.92302
C         -0.60964        1.40078       -2.70406
C         -1.71016        1.79635       -3.42551
C         -1.56137        2.69130       -4.46886
C         -0.30822        3.18901       -4.80106
C          0.78989        2.78144       -4.05635
C          0.63744        1.88633       -3.01365
H          1.48761        1.57394       -2.43039
H          1.76449        3.17330       -4.29203
C         -0.15167        4.17746       -5.90358
H         -2.42189        3.01448       -5.02937
H         -2.68309        1.41535       -3.16298
C         -2.46382       -0.18502       -1.16555
C         -2.98848       -1.05988       -2.08682
C         -4.33649       -1.37076       -2.05293
C         -5.16516       -0.80891       -1.09135
C         -4.61638        0.07336       -0.17060
C         -3.26966        0.38283       -0.20756
H         -2.84877        1.07885        0.49909
H         -5.25306        0.52490        0.57083
C         -6.62145       -1.11933       -1.07050
H         -4.75302       -2.05038       -2.77651
H         -2.33902       -1.49273       -2.83142
Cl        -1.86881        3.13197       -0.52856
H          0.26022       -7.24073       -1.01111
H         -1.01260       -6.53004        1.37173
H          0.97962       -8.05525        1.13599
H         -0.67246       -4.17695        2.08918
H         -4.77139       -4.36673        0.85704
H         -2.83975       -3.14367       -0.44957
H         -3.74890       -1.70340        4.10614
H         -3.83138       -3.97416        3.16097
H          5.01155        2.05990       -4.55941
H          4.93918        3.71978       -3.97634
H          6.25780        2.66409       -3.46496
H          5.64023        0.39247        6.27223
H          4.93978        1.96279        6.65242
H          4.07866        0.48541        7.08910
H          0.83086        4.09446       -6.37035
H         -0.90139        4.02268       -6.68075
H         -0.26110        5.19573       -5.52804
H         -6.81147       -2.13847       -1.41029
H         -7.03063       -1.02459       -0.06361
H         -7.17124       -0.43903       -1.72222
