105
-153.05932571
Cl         0.08080        2.33315        2.95435
Pd        -0.33902        1.48443        0.90566
P         -1.03119        0.53710       -1.14647
N         -0.42327       -0.87451       -2.00313
C          0.32457       -1.97798       -1.60595
C          0.33655       -2.46966       -0.27748
C          1.18637       -3.54900        0.04932
C          1.17791       -4.08314        1.46274
C          2.33367       -5.04059        1.79550
C          2.56738       -6.03965        0.65935
C          2.89874       -5.30199       -0.64582
C          1.97110       -4.15007       -0.93907
C          1.89730       -3.68367       -2.24509
C          1.09077       -2.62624       -2.57351
H          1.06592       -2.25826       -3.58448
H          2.50076       -4.15447       -3.00266
H          3.92574       -4.91995       -0.60403
H          3.36283       -6.75168        0.92160
H          3.25006       -4.45975        1.96005
H          1.19679       -3.23634        2.15804
C         -0.69463       -2.04505        0.70274
C         -0.30924       -1.42166        1.91980
C         -1.26463       -1.28179        2.93005
C         -2.54249       -1.74823        2.76436
C         -2.93746       -2.36791        1.58519
C         -4.34121       -2.91849        1.50814
C         -4.57593       -3.88357        0.33587
C         -3.91795       -3.36145       -0.94378
C         -2.40472       -3.18158       -0.74930
C         -2.02076       -2.49292        0.53844
H         -1.90633       -4.15749       -0.78453
H         -4.36652       -2.39793       -1.21486
H         -5.65062       -4.05308        0.17853
H         -5.04489       -2.08181        1.44376
H         -3.25956       -1.64046        3.56057
H         -0.98155       -0.79637        3.84755
N          0.99003       -0.94449        2.14446
P          1.65055        0.25049        1.03363
C          2.62260       -0.31825       -0.34663
C          2.47915        0.32542       -1.55117
C          3.26960       -0.04771       -2.62298
C          4.21908       -1.05165       -2.48288
C          4.35706       -1.67673       -1.24999
C          3.56370       -1.30459       -0.17955
H          3.66769       -1.78030        0.78278
H          5.08469       -2.46179       -1.13529
C          5.03952       -1.48450       -3.64725
H          3.14945        0.43636       -3.57697
H          1.74074        1.10430       -1.64825
C          2.64669        1.48239        1.87853
C          3.26169        1.18106        3.06996
C          4.03096        2.13841        3.70635
C          4.19704        3.39829        3.14676
C          3.56985        3.68108        1.94097
C          2.80173        2.72241        1.30523
H          2.31690        2.93825        0.36577
H          3.68310        4.65873        1.50454
C          4.99739        4.44132        3.84604
H          4.50568        1.91238        4.64586
H          3.14536        0.19826        3.49675
H          1.11721       -0.50869        3.04871
H         -0.67184       -0.78903       -2.98118
C         -0.69786        1.96570       -2.19757
C          0.04987        1.82528       -3.34374
C          0.30577        2.92376       -4.14355
C         -0.19689        4.17342       -3.80874
C         -0.94738        4.29906       -2.64819
C         -1.19711        3.19852       -1.85109
H         -1.77301        3.29610       -0.94634
H         -1.33134        5.26568       -2.37001
C          0.09959        5.36321       -4.65378
H          0.90080        2.81657       -5.03446
H          0.44296        0.85871       -3.60929
C         -2.82000        0.37916       -1.12141
C         -3.46949        0.40800       -2.33324
C         -4.84851        0.30151       -2.38100
C         -5.58685        0.16970       -1.21313
C         -4.91473        0.15635        0.00055
C         -3.53545        0.24206        0.04298
H         -3.00984        0.21238        0.98431
H         -5.48008        0.08946        0.91414
C         -7.07249        0.08301       -1.25563
H         -5.35978        0.32776       -3.32805
H         -2.89461        0.52065       -3.23945
Cl        -2.33954        2.53053        1.04467
H          2.87973       -6.00017       -1.49250
H          2.14511       -5.56600        2.74239
H          1.66369       -6.64551        0.51641
H          0.21872       -4.58481        1.63730
H         -4.12666       -4.03052       -1.79053
H         -1.99381       -2.61030       -1.58965
H         -4.57332       -3.41753        2.45782
H         -4.15602       -4.86679        0.58312
H          6.00633       -1.87386       -3.32521
H          4.53032       -2.26957       -4.20802
H          5.22747       -0.65254       -4.32737
H          5.50181        5.09409        3.13221
H          4.35796        5.06124        4.47590
H          5.76212        3.99231        4.48135
H          1.01570        5.85439       -4.32296
H          0.22744        5.08147       -5.69990
H         -0.71014        6.09258       -4.60449
H         -7.45183       -0.54789       -0.45043
H         -7.52106        1.07158       -1.14911
H         -7.41609       -0.34319       -2.19922
