111
-148.55772616
P         -2.58672        2.05712        0.46358
P          0.09250        0.39017        0.41871
C         -1.66511        1.80074        2.00586
C         -0.47407        1.10863        1.97198
C         -3.45233        3.69338        0.45256
C         -2.72188        4.70967       -0.39771
C         -2.14486        2.28394        3.20689
H         -3.08894        2.80212        3.23580
C         -1.41980        2.08513        4.36911
H         -1.79299        2.46418        5.30651
C         -0.22094        1.39965        4.33002
H          0.34309        1.24399        5.23493
C          0.25027        0.90388        3.12787
H          1.17799        0.35535        3.08303
Pd        -1.11351        1.48286       -1.22443
Cl        -2.61859        2.36601       -2.63619
Cl         0.36334        0.85917       -2.78723
C         -4.86038        3.32056       -0.04743
C         -4.03010        0.91458        0.26931
H         -2.65065        4.37236       -1.43228
H         -3.23832        5.67235       -0.40108
H         -1.70384        4.87126       -0.03553
H         -4.88176        3.41624       -1.14189
H         -5.60447        4.03989        0.32752
H         -3.94632        0.48815       -0.73920
C         -5.24019        1.86516        0.35201
C         -4.01241       -0.17561        1.32016
H         -3.49946        4.03186        1.49498
H         -5.62503        1.85815        1.38102
H         -6.06468        1.48971       -0.27291
H         -3.10449       -0.77937        1.25339
H         -4.04342        0.25456        2.32292
H         -4.87106       -0.84336        1.21843
C         -1.32664       -3.94292        0.37716
C         -1.73940       -3.06297       -0.65468
C         -1.29599       -1.75308       -0.61471
C         -0.43166       -1.32384        0.35846
C          0.05342       -2.19774        1.29591
C         -0.34076       -3.52597        1.30757
O         -1.92505       -5.22520        0.49965
C         -2.68045       -3.49539       -1.78993
H         -1.62913       -1.04903       -1.35469
H          0.74568       -1.82326        2.02993
C          0.27877       -4.48099        2.33968
C          4.57540        0.74443       -0.29397
C          3.86426       -0.38729       -0.76763
C          2.50001       -0.44620       -0.53807
C          1.86049        0.52453        0.18672
C          2.55871        1.57152        0.72899
C          3.92699        1.68727        0.54482
O          5.92323        0.95323       -0.69012
C          4.53546       -1.52353       -1.55434
H          1.90809       -1.25037       -0.94057
H          2.01466        2.30567        1.29755
C          4.67943        2.83730        1.23289
C         -2.46974       -4.97713       -2.14972
C         -4.13631       -3.25400       -1.36288
C         -2.40251       -2.67625       -3.07178
C         -0.56030       -4.45286        3.62607
C          0.35954       -5.91642        1.78898
C          1.72315       -4.05026        2.68263
C         -3.08427       -5.24648        1.32318
H         -3.09148       -5.26722       -2.99632
H         -1.42914       -5.16334       -2.41328
H         -2.72418       -5.62785       -1.31686
H         -4.38414       -3.81931       -0.46776
H         -4.30401       -2.19946       -1.14582
H         -4.82842       -3.54977       -2.15081
H         -2.69233       -1.63291       -2.95585
H         -1.34526       -2.71147       -3.33320
H         -2.96908       -3.07201       -3.91426
H         -0.13722       -5.11302        4.38281
H         -0.59781       -3.44519        4.03946
H         -1.58280       -4.77064        3.43681
H          0.85833       -6.57974        2.49516
H         -0.62976       -6.32448        1.59765
H          0.91625       -5.93711        0.85265
H          2.31933       -3.93923        1.77744
H          1.74525       -3.10695        3.22618
H          2.20898       -4.79399        3.31388
H         -2.93089       -5.93670        2.15256
H         -3.29283       -4.24940        1.71326
H         -3.93837       -5.59608        0.74345
C          6.06273        1.71169       -1.88499
C          4.48344       -1.19790       -3.05475
C          5.99314       -1.72745       -1.10363
C          3.79930       -2.86181       -1.31378
C          6.12461        2.43026        1.57399
C          4.67906        4.06790        0.31360
C          3.99372        3.21577        2.56575
H          5.01136       -0.27338       -3.27582
H          4.93720       -1.99444       -3.64379
H          3.45238       -1.07686       -3.38630
H          6.44743       -2.57415       -1.61764
H          6.60044       -0.85086       -1.31449
H          6.04022       -1.91623       -0.03165
H          3.70483       -3.06532       -0.24759
H          2.80257       -2.85999       -1.75239
H          4.34490       -3.69006       -1.76529
H          6.13489        1.53090        2.18883
H          6.70222        2.22651        0.67585
H          6.63591        3.22158        2.12159
H          5.19628        4.90511        0.78159
H          5.17245        3.85410       -0.63146
H          3.65964        4.38222        0.09112
H          4.59364        3.93901        3.11769
H          3.86351        2.33751        3.19761
H          3.01711        3.66917        2.40322
H          6.64810        2.60850       -1.68286
H          6.59141        1.12174       -2.63347
H          5.08288        1.99561       -2.27115
