171
-217.84327061
P         -1.60933        0.38179       -0.40500
P          1.60651       -0.40939       -0.31367
C         -0.86199        1.30160       -1.75192
C          0.91158       -1.40611       -1.63515
C         -0.06138        0.64967       -2.68279
C          0.57333        1.41376       -3.68115
C          0.36091        2.78171       -3.72462
C         -0.45516        3.40502       -2.80449
C         -1.06134        2.65900       -1.81305
C          1.12342       -2.76302       -1.60097
C          0.54562       -3.58120       -2.55119
C         -0.26050       -3.03023       -3.52443
C         -0.48855       -1.66476       -3.57500
C          0.12546       -0.82682       -2.62483
Cl         1.45013        0.29813        2.92794
Cl        -1.71514       -0.57934        2.69951
C         -1.36386       -1.10721       -4.64142
C          1.45945        0.78082       -4.69635
H         -0.61780        4.46913       -2.85693
H         -1.69553        3.13762       -1.08459
H          1.74371       -3.18590       -0.82748
H          0.71930       -4.64459       -2.52653
H          0.84547        3.36047       -4.49285
H         -0.72513       -3.66503       -4.26000
C         -3.98636       -3.24666       -1.67923
C         -2.93193       -3.41037       -0.78945
C         -2.20987       -2.28193       -0.42293
C         -2.52266       -1.05573       -0.95338
C         -3.55751       -0.91182       -1.84473
C         -4.32590       -2.00917       -2.21429
H         -4.56471       -4.11091       -1.94607
H         -1.40233       -2.34684        0.28555
H         -3.77726        0.06711       -2.23751
C         -4.22797        2.93518        2.28769
C         -4.80615        1.87718        1.59597
C         -3.99380        1.13407        0.75030
C         -2.66203        1.43552        0.61178
C         -2.10678        2.47907        1.31028
C         -2.87750        3.24447        2.17552
H         -4.84313        3.52987        2.93468
H         -4.40084        0.30188        0.20366
H         -1.05742        2.68521        1.18916
C          4.40346       -2.80706        2.33380
C          3.05056       -3.12637        2.33066
C          2.21596       -2.40579        1.48708
C          2.71514       -1.39164        0.70849
C          4.05150       -1.07959        0.73575
C          4.92777       -1.78983        1.54587
H          5.07169       -3.35447        2.97146
H          1.16174       -2.62276        1.45160
H          4.40374       -0.26638        0.12684
C          3.87366        3.29525       -1.56702
C          2.90477        3.40139       -0.57653
C          2.19890        2.25565       -0.23571
C          2.45587        1.06506       -0.86798
C          3.41875        0.97374       -1.84302
C          4.15341        2.09556       -2.21037
H          4.44461        4.16349       -1.83700
H          1.46012        2.28414        0.54712
H          3.60250        0.01520       -2.29784
Pd        -0.04930       -0.01181        1.29135
C         -2.40331       -5.80026       -1.35371
C         -2.62606       -4.79663       -0.20689
C         -3.81374       -5.25115        0.65974
C         -1.35904       -4.77307        0.66943
H         -1.59362       -5.46898       -2.00274
H         -2.14281       -6.78456       -0.96499
H         -3.29753       -5.91168       -1.96546
H         -3.62300       -6.22877        1.10207
H         -3.99199       -4.54272        1.46859
H         -4.72728       -5.32225        0.07031
H         -1.13400       -5.76884        1.05102
H         -0.49758       -4.43337        0.09560
H         -1.48588       -4.11345        1.52756
C         -5.04590       -1.32770       -4.52347
C         -5.53111       -1.81569       -3.14767
C         -6.48099       -0.76855       -2.53666
C         -6.31767       -3.12631       -3.34367
H         -4.40230       -2.07243       -4.99001
H         -5.88777       -1.14822       -5.19200
H         -4.48402       -0.39834       -4.43730
H         -7.37093       -0.64138       -3.15279
H         -6.80082       -1.07376       -1.54046
H         -5.99505        0.20253       -2.45338
H         -7.17871       -2.96675       -3.99264
H         -5.69591       -3.89266       -3.80613
H         -6.68775       -3.50713       -2.39187
C         -7.00333        1.84530        0.40122
C         -6.29306        1.51619        1.72522
C         -6.97443        2.30286        2.86176
C         -6.43367        0.01133        2.03001
H         -8.06128        1.58794        0.44916
H         -6.92257        2.90813        0.17400
H         -6.55966        1.29394       -0.42607
H         -6.96526        3.37396        2.66146
H         -8.01589        2.00035        2.97073
H         -6.47537        2.12384        3.81400
H         -7.47850       -0.25986        2.18012
H         -6.04933       -0.60070        1.21518
H         -5.88334       -0.25034        2.93348
C         -0.85409        3.99546        3.48006
C         -2.23853        4.41206        2.94156
C         -3.10445        4.83926        4.14344
C         -2.08527        5.60601        1.98500
H         -0.15256        3.79582        2.67257
H         -0.42273        4.78317        4.09739
H         -0.93211        3.09427        4.08791
H         -4.05868        5.25338        3.81954
H         -3.30026        3.99267        4.80133
H         -2.60051        5.60792        4.72930
H         -3.05853        5.93897        1.62488
H         -1.60101        6.44684        2.48126
H         -1.48723        5.33416        1.11657
C          1.23591       -3.68724        3.97577
C          2.45724       -4.23571        3.21006
C          3.47888       -4.75229        4.24145
C          2.02491       -5.40650        2.31134
H          1.51342       -2.81482        4.56690
H          0.43724       -3.38918        3.29829
H          0.82951       -4.43898        4.65196
H          4.33491       -5.21564        3.75159
H          3.83880       -3.94082        4.87379
H          3.02765       -5.50349        4.88959
H          1.57533       -6.20678        2.89886
H          1.29604       -5.08074        1.57121
H          2.88033       -5.81784        1.77579
C          6.79944       -0.32929        0.62932
C          6.42693       -1.46424        1.60439
C          7.23724       -2.71686        1.22321
C          6.79246       -1.02126        3.03257
H          6.27059        0.59110        0.87661
H          7.86748       -0.11645        0.67247
H          6.55836       -0.60187       -0.39801
H          6.96988       -3.05794        0.22319
H          8.30676       -2.50742        1.23367
H          7.05214       -3.53602        1.91696
H          6.59318       -1.81190        3.75502
H          7.84886       -0.76269        3.10301
H          6.21000       -0.14752        3.32430
C          1.15336        5.11946       -0.08306
C          2.61477        4.71145        0.16818
C          3.53009        5.85610       -0.30640
C          2.84412        4.49698        1.67648
H          0.46817        4.33585        0.23528
H          0.90248        6.03042        0.45998
H          0.98283        5.30051       -1.14367
H          3.31063        6.77585        0.23577
H          4.57937        5.61526       -0.13669
H          3.38795        6.05775       -1.36797
H          2.64625        5.41116        2.23579
H          2.19394        3.71764        2.07106
H          3.87418        4.19826        1.86967
C          5.03575        3.05767       -4.35979
C          5.29166        2.03218       -3.23920
C          5.41011        0.63178       -3.87194
C          6.62159        2.36068       -2.53555
H          5.81736        3.00867       -5.11776
H          4.08108        2.86961       -4.84885
H          5.01567        4.07487       -3.97082
H          5.63608       -0.12181       -3.11776
H          4.48791        0.34773       -4.37722
H          6.21168        0.60779       -4.61006
H          6.60501        3.36203       -2.10674
H          6.81459        1.65520       -1.72795
H          7.45620        2.31010       -3.23459
H         -0.79578       -0.91314       -5.55190
H          1.76696       -0.22030       -4.39142
H         -1.82772       -0.17209       -4.32435
H         -2.16242       -1.80600       -4.89122
H          2.36301        1.37217       -4.84319
H          0.95425        0.70187       -5.65987
