111
-148.55572566
P         -2.68318        2.05125        0.48697
P          0.11841        0.58124        0.28222
C         -1.53825        2.09036        1.89355
C         -0.29789        1.50060        1.77692
C         -3.63421        3.63278        0.33893
C         -3.10081        4.50763       -0.77437
C         -1.90078        2.70024        3.07766
H         -2.87919        3.14158        3.17282
C         -1.01333        2.72563        4.13978
H         -1.29599        3.20166        5.06452
C          0.23211        2.14005        4.01742
H          0.92181        2.15729        4.84518
C          0.58894        1.52095        2.83318
H          1.54983        1.04246        2.72747
Pd        -1.44043        1.25460       -1.29074
Cl        -3.18065        1.81848       -2.59138
Cl        -0.16279        0.43245       -2.94167
C         -5.07952        3.14028        0.14094
C         -4.07492        0.84623        0.68256
H         -3.66512        5.43960       -0.85472
H         -2.05012        4.75941       -0.61213
H         -3.16999        3.99863       -1.73630
H         -5.27799        3.05544       -0.93644
H         -5.79523        3.88764        0.51613
H         -4.12102        0.28118       -0.25816
C         -5.30840        1.75892        0.81926
C         -3.84252       -0.08151        1.85539
H         -3.53833        4.14419        1.30503
H         -5.52199        1.90676        1.88678
H         -6.19954        1.26209        0.40657
H         -4.67737       -0.77313        1.98991
H         -2.93461       -0.67205        1.71768
H         -3.72743        0.48542        2.78105
C         -1.03827       -3.79088        0.83305
C         -0.85174       -2.96566        1.97166
C         -0.48696       -1.64510        1.77240
C         -0.37216       -1.12713        0.50952
C         -0.64237       -1.89527       -0.59089
C         -1.02480       -3.21873       -0.46466
O         -1.19920       -5.19311        0.99100
C         -1.00382       -3.49067        3.40752
H         -0.27859       -1.00030        2.60766
H         -0.54006       -1.43877       -1.55987
C         -1.39650       -4.00733       -1.72967
C          4.56958        0.68938       -0.66476
C          3.69174        1.56904       -1.34961
C          2.34676        1.54722       -1.01768
C          1.86093        0.64300       -0.11061
C          2.68711       -0.28172        0.47344
C          4.04240       -0.31035        0.19171
O          5.97529        0.82859       -0.81323
C          4.17884        2.53878       -2.43798
H          1.65332        2.23152       -1.47499
H          2.25169       -0.99256        1.15486
C          4.91224       -1.40790        0.82454
C         -1.44078       -2.35666        4.36317
C         -2.08526       -4.58344        3.48505
C          0.34579       -4.04391        3.88981
C         -2.02332       -3.06931       -2.78759
C         -0.12965       -4.64126       -2.32342
C         -2.44156       -5.09442       -1.42054
C          0.02097       -5.92260        0.95113
H         -0.65882       -1.60906        4.48782
H         -2.33613       -1.85906        3.99195
H         -1.66521       -2.75152        5.35377
H         -2.23869       -4.91088        4.51302
H         -3.03487       -4.21095        3.10219
H         -1.80916       -5.45693        2.89958
H          0.68429       -4.86245        3.25920
H          1.11105       -3.26831        3.86494
H          0.27323       -4.41440        4.91203
H         -2.85020       -2.50180       -2.36134
H         -1.29522       -2.36451       -3.18598
H         -2.40913       -3.64047       -3.63154
H          0.33628       -5.32585       -1.61856
H         -0.36019       -5.19755       -3.23159
H          0.60301       -3.87437       -2.57387
H         -2.04684       -5.84213       -0.73733
H         -3.32624       -4.65570       -0.96021
H         -2.75191       -5.60950       -2.32929
H          0.86636       -5.24434        0.82807
H          0.13905       -6.48674        1.87618
H         -0.00121       -6.62952        0.12201
C          6.57208        1.71499        0.12483
C          3.06044        2.80108       -3.47276
C          4.57432        3.87484       -1.79186
C          5.37315        1.94889       -3.21010
C          5.44684       -0.91539        2.17770
C          4.08382       -2.69288        1.05899
C          6.08127       -1.79043       -0.10102
H          2.66145        1.86313       -3.85821
H          2.23850        3.37133       -3.04278
H          3.44064        3.37563       -4.31704
H          3.72725        4.31394       -1.26537
H          5.37837        3.74170       -1.07204
H          4.91083        4.58775       -2.54420
H          5.11440        0.97887       -3.63328
H          5.67578        2.60531       -4.02556
H          6.23520        1.81076       -2.56216
H          4.62512       -0.66896        2.84985
H          6.05819       -1.67927        2.65751
H          6.05617       -0.02256        2.05923
H          3.57961       -3.00184        0.14360
H          4.72485       -3.51320        1.38106
H          3.33156       -2.55325        1.83403
H          6.66104       -2.61212        0.31872
H          6.75851       -0.95332       -0.25121
H          5.71134       -2.10009       -1.07787
H          7.08054        2.51984       -0.40575
H          5.81396        2.13657        0.78604
H          7.31217        1.17692        0.71686
