111
-148.55481223
P         -2.69503        2.01642       -0.43931
P          0.02532        0.57328        0.28952
C         -1.92442        2.31268        1.17437
C         -0.71656        1.71794        1.46808
C         -3.45252        3.55923       -1.12602
C         -2.62468        4.12498       -2.25924
C         -2.54077        3.11818        2.11044
H         -3.49340        3.56750        1.88209
C         -1.93904        3.32999        3.33908
H         -2.41956        3.95833        4.07115
C         -0.72588        2.73539        3.62940
H         -0.25935        2.89787        4.58707
C         -0.11424        1.92288        2.69165
H          0.82437        1.43701        2.90758
Pd        -1.11906        0.89468       -1.69837
Cl        -2.52218        1.03597       -3.44104
Cl         0.55404       -0.17620       -2.75167
C         -4.86612        3.09849       -1.52753
C         -4.18558        0.92287       -0.36295
H         -1.61037        4.36257       -1.92962
H         -2.54309        3.40663       -3.07614
H         -3.07226        5.03529       -2.66490
H         -4.85333        2.80603       -2.58654
H         -5.57681        3.93626       -1.46062
H         -4.07242        0.19925       -1.18142
C         -5.34185        1.89410       -0.66543
C         -4.28510        0.21395        0.97011
H         -3.50627        4.27402       -0.29491
H         -5.75188        2.26284        0.28488
H         -6.17012        1.36176       -1.15735
H         -5.17930       -0.41133        1.02462
H         -3.41554       -0.42360        1.14235
H         -4.33187        0.93313        1.78988
C         -1.16627       -3.70881        1.28693
C         -0.44052       -3.42553        0.10184
C         -0.13271       -2.10530       -0.17519
C         -0.43792       -1.10509        0.70819
C         -1.04152       -1.38587        1.90560
C         -1.39313       -2.68284        2.24008
O         -1.69513       -5.00887        1.50494
C         -0.00220       -4.51231       -0.89168
H          0.33574       -1.82878       -1.10365
H         -1.24044       -0.57083        2.57847
C         -2.03249       -2.95903        3.61013
C          4.56301        0.87909        0.06799
C          3.76539        1.61962       -0.84185
C          2.38755        1.54732       -0.71747
C          1.80553        0.71328        0.20023
C          2.57042       -0.08647        1.00898
C          3.95350       -0.05335        0.94546
O          5.96660        1.09032        0.12092
C          4.36998        2.48405       -1.95978
H          1.74496        2.13183       -1.35310
H          2.06553       -0.74898        1.69102
C          4.76752       -1.01252        1.82793
C          0.26804       -5.84682       -0.17369
C         -1.09102       -4.69241       -1.96011
C          1.31473       -4.10527       -1.59275
C         -3.56163       -2.87569        3.48823
C         -1.61832       -4.34350        4.14097
C         -1.56685       -1.91714        4.65257
C         -2.99085       -5.20710        0.95344
H          1.01116       -5.71544        0.61219
H         -0.63489       -6.24166        0.28488
H          0.63971       -6.59823       -0.86991
H         -0.80289       -5.45105       -2.68727
H         -2.03545       -4.99501       -1.51415
H         -1.26199       -3.75889       -2.49587
H          1.69973       -4.92468       -2.19917
H          1.17247       -3.25532       -2.25834
H          2.07820       -3.84280       -0.86093
H         -3.94013       -3.59665        2.76794
H         -4.04076       -3.07439        4.44656
H         -3.86906       -1.88401        3.15824
H         -2.01791       -4.51594        5.14001
H         -1.98522       -5.14010        3.49828
H         -0.53312       -4.42668        4.19038
H         -0.47913       -1.85809        4.68316
H         -1.95943       -0.92507        4.43356
H         -1.91553       -2.18544        5.64959
H         -3.35311       -4.28744        0.49211
H         -2.95457       -5.99893        0.20557
H         -3.67854       -5.51491        1.74102
C          6.36371        2.12734        1.00892
C          4.58125        3.91453       -1.44238
C          5.70384        1.89584       -2.45509
C          3.42146        2.53296       -3.18002
C          6.07532       -1.42880        1.13052
C          5.07666       -0.33068        3.16909
C          3.97189       -2.30913        2.10474
H          4.99927        4.55308       -2.22019
H          3.63643        4.35069       -1.11893
H          5.26062        3.93029       -0.59345
H          6.45607        1.90148       -1.67026
H          5.56995        0.86517       -2.78189
H          6.09820        2.46937       -3.29352
H          3.90199        3.02525       -4.02511
H          3.14114        1.52742       -3.49291
H          2.51111        3.08913       -2.96193
H          5.86658       -1.87279        0.15774
H          6.73007       -0.57501        0.97395
H          6.62250       -2.15866        1.72665
H          4.15568       -0.05668        3.68327
H          5.64425       -0.99297        3.82230
H          5.65746        0.57713        3.02449
H          3.10690       -2.12431        2.74009
H          4.59370       -3.04253        2.61762
H          3.62482       -2.75740        1.17412
H          6.89265        2.90191        0.45395
H          5.49252        2.56205        1.50058
H          7.04200        1.72390        1.76058
