171
-217.83432578
P         -1.67752        0.77346        0.22299
P          1.48373       -0.25548       -0.27791
C         -0.86618        1.86189       -0.97084
C          0.56653       -0.91179       -1.68906
C         -0.19962        1.41702       -2.10641
C          0.49749        2.35277       -2.89357
C          0.47991        3.68939       -2.53275
C         -0.19490        4.11440       -1.40858
C         -0.85853        3.19213       -0.62283
C          0.60836       -2.24780       -2.00715
C         -0.09925       -2.72818       -3.09142
C         -0.86221       -1.86512       -3.84964
C         -0.93231       -0.51676       -3.53982
C         -0.18613       -0.02693       -2.45107
Cl         2.12929        1.25557        2.60642
Cl        -0.92475        0.73523        3.46193
C         -1.77770        0.39935       -4.35475
C          1.27665        1.94085       -4.09351
H         -0.19505        5.15712       -1.13607
H         -1.36623        3.50512        0.27768
H          1.17944       -2.92515       -1.39689
H         -0.06156       -3.77596       -3.34078
H          1.01442        4.39989       -3.14071
H         -1.41549       -2.23901       -4.69430
C         -2.97156       -3.43609       -0.86244
C         -1.89146       -3.28765       -0.00100
C         -1.48311       -1.99712        0.31650
C         -2.12011       -0.90994       -0.23635
C         -3.18517       -1.07978       -1.08614
C         -3.63884       -2.34985       -1.41411
H         -3.30904       -4.42946       -1.09039
H         -0.66242       -1.83389        0.99123
H         -3.68686       -0.21210       -1.47790
C         -5.57640        2.75763        1.40719
C         -4.75166        2.27335        2.41601
C         -3.55343        1.68267        2.04338
C         -3.19558        1.59214        0.72352
C         -4.01651        2.08481       -0.26120
C         -5.23324        2.67279        0.06312
H         -6.51257        3.21490        1.66689
H         -2.88147        1.29766        2.78867
H         -3.69497        2.00974       -1.28618
C          3.73178       -3.64982        1.77870
C          3.84109       -3.47965        0.40487
C          3.15235       -2.42294       -0.17802
C          2.35417       -1.59647        0.57579
C          2.27479       -1.77871        1.93652
C          2.96905       -2.79958        2.56869
H          4.26276       -4.46210        2.23821
H          3.23769       -2.23746       -1.23398
H          1.69150       -1.10288        2.53274
C          4.68406        2.51236       -1.90039
C          3.97604        2.91127       -0.77276
C          3.00429        2.05267       -0.27992
C          2.74577        0.85692       -0.89867
C          3.44456        0.48396       -2.02070
C          4.43417        1.30723       -2.54567
H          5.46336        3.14481       -2.28120
H          2.46087        2.30852        0.61148
H          3.19989       -0.45106       -2.49380
Pd         0.24398        0.66522        1.53848
C         -2.25466       -5.24826        1.51233
C         -1.23396       -4.53614        0.60657
C         -0.00159       -4.17285        1.45137
C         -0.78109       -5.49009       -0.51502
H         -2.59260       -4.58328        2.30696
H         -3.13006       -5.56558        0.94671
H         -1.81625       -6.13228        1.97507
H          0.75018       -3.67184        0.84445
H         -0.27520       -3.51668        2.27637
H          0.45854       -5.06584        1.87411
H         -1.62180       -5.82059       -1.12331
H         -0.06332       -5.00078       -1.17172
H         -0.30268       -6.37725       -0.10033
C         -5.20205       -3.97728       -2.59292
C         -4.88666       -2.49879       -2.29650
C         -4.66455       -1.77282       -3.63512
C         -6.09013       -1.87324       -1.56677
H         -6.07694       -4.06421       -3.23715
H         -4.36763       -4.46064       -3.10093
H         -5.41438       -4.52586       -1.67551
H         -3.80460       -2.18896       -4.15821
H         -5.53453       -1.87547       -4.28351
H         -4.48803       -0.70877       -3.48428
H         -5.92605       -0.81360       -1.37352
H         -6.99975       -1.96825       -2.15948
H         -6.25731       -2.36464       -0.60852
C         -5.18623        0.94190        4.49440
C         -5.11243        2.36298        3.90551
C         -6.47135        3.05526        4.12353
C         -4.02742        3.17146        4.64152
H         -5.93161        0.34556        3.96860
H         -4.22857        0.42929        4.41117
H         -5.45822        0.97016        5.54934
H         -6.70978        3.11281        5.18553
H         -6.46042        4.07254        3.73261
H         -7.27506        2.50471        3.63495
H         -3.05301        2.69093        4.56183
H         -3.94161        4.17290        4.22041
H         -4.26451        3.26906        5.70071
C         -5.63331        2.98390       -2.43112
C         -6.19055        3.20819       -1.01103
C         -6.39744        4.71883       -0.79957
C         -7.54104        2.47641       -0.89972
H         -4.68452        3.50262       -2.56743
H         -5.47952        1.92316       -2.62926
H         -6.32609        3.36229       -3.18264
H         -5.44666        5.24861       -0.85593
H         -7.06016        5.13215       -1.55970
H         -6.83811        4.92534        0.17509
H         -8.23523        2.82021       -1.66635
H         -7.40768        1.40183       -1.02291
H         -8.00602        2.64661        0.07055
C          4.73509       -4.04730       -1.90995
C          4.68077       -4.46021       -0.42555
C          4.05122       -5.86177       -0.32975
C          6.12077       -4.49478        0.11924
H          5.34468       -4.74529       -2.48362
H          3.73962       -4.03979       -2.35370
H          5.17333       -3.05595       -2.02357
H          3.02559       -5.84842       -0.69872
H          4.61402       -6.58430       -0.92049
H          4.03043       -6.21522        0.70061
H          6.56635       -3.50057        0.09003
H          6.14857       -4.84426        1.15048
H          6.74575       -5.16219       -0.47391
C          3.50578       -1.61301        4.70494
C          2.91937       -2.90319        4.10083
C          3.73597       -4.10302        4.61714
C          1.46180       -3.07029        4.56853
H          4.53151       -1.46259        4.36922
H          2.92684       -0.73919        4.40808
H          3.50861       -1.65699        5.79376
H          3.35276       -5.04018        4.21368
H          4.78638       -4.01080        4.34177
H          3.68512       -4.16605        5.70408
H          0.84082       -2.23595        4.24460
H          1.03207       -3.98880        4.17091
H          1.40667       -3.12050        5.65576
C          2.94549        5.06500       -0.00974
C          4.24231        4.23517       -0.04338
C          5.33424        5.06447       -0.74549
C          4.70139        3.93473        1.39567
H          2.59624        5.27198       -1.02091
H          2.15122        4.53794        0.51763
H          3.10436        6.01801        0.49434
H          5.50066        6.00607       -0.22234
H          6.28251        4.52777       -0.76637
H          5.04755        5.30199       -1.76984
H          4.91444        4.85558        1.93807
H          3.93697        3.39092        1.94945
H          5.60585        3.32693        1.39192
C          4.69709       -0.35851       -4.45174
C          5.28530        0.88335       -3.75205
C          6.70390        0.54716       -3.25992
C          5.35389        2.02633       -4.78360
H          4.70134       -1.22425       -3.79037
H          3.67266       -0.17676       -4.77588
H          5.28276       -0.61952       -5.33308
H          7.34068        0.23212       -4.08639
H          7.16898        1.41165       -2.78695
H          6.67589       -0.25954       -2.52744
H          5.82667        2.91483       -4.36780
H          5.93274        1.72548       -5.65674
H          4.35689        2.30328       -5.12384
H         -2.52969       -0.15089       -4.92160
H          0.82377        2.32941       -5.00678
H         -1.17214        0.95939       -5.06787
H         -2.29995        1.11653       -3.71926
H          1.33865        0.85564       -4.18100
H          2.29545        2.32515       -4.03620
