59
-75.80315481
Cl         1.55981        0.42050        2.37540
P          1.56620       -0.01140       -0.80061
P         -1.59563       -0.09224       -0.87537
C          0.64317        0.16379       -2.38774
H          0.38420        1.21765       -2.52041
H          1.30020       -0.12520       -3.21432
C         -0.59376       -0.68349       -2.30921
H         -0.33528       -1.73372       -2.15495
H         -1.20128       -0.62455       -3.21784
C          2.55060       -1.58425       -0.83727
H          2.21259       -2.13953       -1.72050
C          2.96936        1.18549       -0.66184
H          3.15881        1.30521        0.41218
C         -2.92647       -1.27194       -0.33276
H         -2.89590       -1.27311        0.76365
C         -2.66746        1.30957       -1.46279
H         -2.66136        1.19851       -2.55592
C          4.01426       -1.11443       -1.00093
H          4.55535       -1.32101       -0.06773
H          4.52604       -1.71026       -1.77106
C          4.11925        0.40343       -1.31779
H          4.07643        0.56018       -2.40498
H          5.09137        0.80963       -0.99776
C         -4.22290       -0.60226       -0.82203
H         -4.48543       -1.01591       -1.80536
H         -5.06215       -0.86254       -0.15930
C         -4.06222        0.93664       -0.93475
H         -4.21126        1.38728        0.05421
H         -4.84421        1.36988       -1.57684
C          2.31329       -2.39875        0.42935
H          1.23454       -2.50973        0.59586
H          2.67221       -1.82030        1.29142
C          2.67002        2.53996       -1.28944
H          3.59760        3.12649       -1.34558
H          2.36120        2.39023       -2.33186
C         -2.73234       -2.69208       -0.85375
H         -3.65978       -3.25995       -0.69522
H         -2.60035       -2.65615       -1.94284
C         -2.18042        2.71261       -1.09877
H         -1.19201        2.86769       -1.55015
H         -2.83307        3.44923       -1.58761
C          2.97702       -3.76733        0.39310
H          2.79391       -4.33531        1.30807
H          4.05824       -3.68280        0.27107
H          2.60498       -4.36251       -0.44304
C          1.60970        3.31131       -0.52015
H          0.69609        2.72508       -0.42156
H          1.35028        4.25503       -1.00516
H          1.94584        3.54144        0.49270
C         -1.56846       -3.41502       -0.19548
H         -0.63153       -2.88405       -0.35783
H         -1.44180       -4.42889       -0.58190
H         -1.70946       -3.48918        0.88454
C         -2.11789        3.01113        0.39133
H         -1.70409        4.00251        0.59065
H         -3.10445        2.97913        0.85523
H         -1.49407        2.29121        0.91852
Cl        -1.72631        0.28772        2.32984
Pd        -0.04985        0.06003        0.85717
