171
-217.84399202
P         -1.60296        0.39288       -0.33810
P          1.62306       -0.37186       -0.38932
C         -0.90540        1.39708       -1.64988
C          0.89939       -1.29670       -1.74355
C         -0.10726        0.81944       -2.63034
C          0.50150        1.65834       -3.58301
C          0.25897        3.02172       -3.54189
C         -0.55769        3.57029       -2.57612
C         -1.13273        2.75163       -1.62480
C          1.12851       -2.64895       -1.80831
C          0.54775       -3.40240       -2.80947
C         -0.27857       -2.79297       -3.72990
C         -0.52099       -1.43018       -3.68171
C          0.09579       -0.65586       -2.67998
Cl         1.68287        0.63267        2.71186
Cl        -1.48413       -0.40666        2.88937
C         -1.42537       -0.81524       -4.69196
C          1.38203        1.10223       -4.64551
H         -0.74332        4.63183       -2.55946
H         -1.76487        3.17181       -0.85956
H          1.76496       -3.11635       -1.07402
H          0.73676       -4.46179       -2.86796
H          0.71934        3.65666       -4.28000
H         -0.74806       -3.37873       -4.50220
C         -3.87409       -3.27783       -1.68156
C         -2.89138       -3.41569       -0.70870
C         -2.18160       -2.28096       -0.33896
C         -2.45512       -1.06880       -0.92119
C         -3.43161       -0.94653       -1.87908
C         -4.16559       -2.05758       -2.27902
H         -4.44603       -4.13796       -1.97427
H         -1.42199       -2.33579        0.42219
H         -3.62450        0.02708       -2.29673
C         -4.38759        2.76815        2.34490
C         -4.91273        1.74049        1.57111
C         -4.04224        1.03726        0.74858
C         -2.71118        1.36777        0.69362
C         -2.21193        2.39322        1.45765
C         -3.03999        3.10717        2.31293
H         -5.05016        3.30684        2.99573
H         -4.39437        0.21429        0.15294
H         -1.16190        2.62568        1.40130
C          4.16634       -2.89940        2.39333
C          2.81081       -3.18019        2.28672
C          2.06152       -2.42850        1.39025
C          2.64845       -1.42402        0.65845
C          3.98762       -1.14976        0.79181
C          4.77868       -1.89153        1.66040
H          4.75950       -3.46996        3.08411
H          1.00487       -2.60053        1.27954
H          4.40575       -0.33355        0.23052
C          3.98846        3.23881       -1.73646
C          2.94178        3.41414       -0.83967
C          2.22968        2.28915       -0.44412
C          2.54676        1.05412       -0.95080
C          3.57559        0.89812       -1.84735
C          4.32957        1.99333       -2.25176
H          4.55862        4.10109       -2.02622
H          1.42475        2.36407        0.26636
H          3.79894       -0.08737       -2.22115
Pd         0.03652        0.04337        1.29386
C         -3.55601       -5.86339       -0.46729
C         -2.58095       -4.75483       -0.02626
C         -2.70011       -4.58635        1.50069
C         -1.15168       -5.18544       -0.39715
H         -4.58598       -5.59501       -0.23273
H         -3.48173       -6.04955       -1.53852
H         -3.33303       -6.79949        0.04460
H         -3.70608       -4.26906        1.77442
H         -2.48984       -5.52391        2.01497
H         -2.00401       -3.83786        1.87540
H         -0.87286       -6.10620        0.11490
H         -1.07204       -5.35884       -1.46978
H         -0.42825       -4.41637       -0.13122
C         -6.63966       -2.28908       -2.57776
C         -5.31560       -1.96120       -3.29217
C         -5.08746       -2.96620       -4.43738
C         -5.42385       -0.54736       -3.89612
H         -6.81561       -1.59645       -1.75536
H         -7.48247       -2.21821       -3.26509
H         -6.62679       -3.29804       -2.16689
H         -4.13842       -2.77824       -4.93724
H         -5.07363       -3.99166       -4.07061
H         -5.87956       -2.89264       -5.18238
H         -5.63834        0.19343       -3.12608
H         -4.50105       -0.26311       -4.40066
H         -6.22922       -0.50073       -4.62900
C         -7.24565        2.63886        1.33617
C         -6.40473        1.39110        1.66439
C         -6.72076        0.91004        3.09184
C         -6.78843        0.27408        0.67321
H         -8.31081        2.41015        1.36740
H         -7.05833        3.44324        2.04634
H         -7.00937        3.01019        0.33912
H         -7.77135        0.63674        3.18858
H         -6.11910        0.03718        3.34470
H         -6.50779        1.68620        3.82605
H         -7.85362        0.05143        0.73378
H         -6.57040        0.57100       -0.35253
H         -6.24771       -0.64719        0.88949
C         -3.45756        4.75086        4.21100
C         -2.44413        4.22932        3.17415
C         -2.02853        5.39343        2.25871
C         -1.21108        3.69589        3.93148
H         -3.00515        5.51476        4.84329
H         -4.32364        5.19976        3.72533
H         -3.80240        3.94507        4.85880
H         -1.30346        5.06547        1.51576
H         -2.89178        5.79243        1.72638
H         -1.58001        6.20350        2.83350
H         -0.80039        4.45751        4.59390
H         -1.47703        2.82912        4.53605
H         -0.41927        3.39372        3.24773
C          0.65761       -4.34020        2.98601
C          2.18324       -4.25991        3.17958
C          2.46075       -3.92283        4.65690
C          2.79684       -5.62708        2.83009
H          0.22128       -5.09098        3.64462
H          0.18350       -3.38513        3.21219
H          0.41131       -4.61836        1.96304
H          3.52873       -3.91504        4.87045
H          2.06204       -2.93957        4.90620
H          1.99526       -4.65372        5.31783
H          2.36180       -6.41785        3.44103
H          2.61850       -5.87208        1.78311
H          3.87366       -5.63026        2.99563
C          6.76916       -0.49310        0.91778
C          6.26883       -1.59127        1.87480
C          7.09349       -2.86693        1.62004
C          6.48071       -1.11362        3.32272
H          6.23901        0.44498        1.08132
H          7.83138       -0.30110        1.06867
H          6.63131       -0.79492       -0.11959
H          6.82417       -3.66117        2.31503
H          6.92750       -3.23627        0.60818
H          8.15930       -2.67143        1.73713
H          7.52776       -0.87310        3.50595
H          5.88800       -0.22114        3.52276
H          6.18270       -1.87913        4.03829
C          2.40135        5.79054       -1.45030
C          2.63096        4.81057       -0.28437
C          3.81863        5.28744        0.57003
C          1.36566        4.79914        0.59488
H          2.13626        6.78085       -1.08040
H          3.29404        5.89501       -2.06546
H          1.59249        5.44259       -2.09154
H          4.73077        5.34866       -0.02268
H          3.62556        6.27374        0.99158
H          4.00074        4.59715        1.39356
H          1.13619        5.80152        0.95599
H          0.50475        4.44326        0.03012
H          1.49726        4.15834        1.46643
C          6.24867        3.11759       -3.49553
C          5.52316        1.79071       -3.19881
C          5.03586        1.19654       -4.53193
C          6.52739        0.82499       -2.54452
H          6.63736        3.56545       -2.58111
H          7.09204        2.95495       -4.16659
H          5.57968        3.83203       -3.97496
H          4.51220        0.25375       -4.37852
H          4.35805        1.88507       -5.03431
H          5.87395        1.00666       -5.20234
H          6.86897        1.21807       -1.58729
H          6.07745       -0.15147       -2.36958
H          7.40078        0.67940       -3.17998
H         -0.94125       -0.76107       -5.66797
H          1.88685        0.19655       -4.30639
H         -1.72192        0.19404       -4.40358
H         -2.33503       -1.40490       -4.80421
H          2.14762        1.82396       -4.93065
H          0.80853        0.85661       -5.53996
