111
-148.55085313
P         -2.25064        2.25194        1.10247
P          0.06102        0.15336        0.59983
C         -1.29696        1.61145        2.50430
C         -0.27925        0.71217        2.27639
C         -2.52572        4.07283        1.28978
C         -1.99019        4.83424        0.09714
C         -1.57586        2.02225        3.79217
H         -2.36887        2.73138        3.96493
C         -0.83573        1.52234        4.84982
H         -1.05394        1.84099        5.85604
C          0.18211        0.61699        4.61765
H          0.75767        0.22737        5.44110
C          0.46191        0.21037        3.32514
H          1.25054       -0.49804        3.12431
Pd        -1.24848        1.42917       -0.81404
Cl        -2.79500        2.52670       -2.01022
Cl        -0.09946        0.61079       -2.56234
C         -4.05398        4.18193        1.47585
C         -4.00073        1.65493        1.04426
H         -2.12068        5.91230        0.21766
H         -0.92650        4.63663       -0.05631
H         -2.51426        4.54046       -0.81329
H         -4.41175        5.11816        1.02330
H         -4.29629        4.26057        2.54586
H         -4.08524        1.01498        0.15510
C         -4.80172        2.96125        0.86867
C         -4.35556        0.87620        2.29245
H         -1.99361        4.37598        2.20182
H         -5.79590        2.84797        1.32525
H         -4.98426        3.14381       -0.20068
H         -3.67950        0.03050        2.43638
H         -4.28113        1.51072        3.17716
H         -5.37697        0.49065        2.24862
C         -1.21953       -4.17704       -0.00704
C         -1.64373       -3.47460        1.15054
C         -1.21561       -2.16767        1.31844
C         -0.47555       -1.53732        0.35208
C         -0.18184       -2.16935       -0.82750
C         -0.55389       -3.48372       -1.04937
O         -1.43353       -5.57713       -0.11485
C         -2.53965       -4.10954        2.22601
H         -1.45143       -1.62306        2.21582
H          0.33405       -1.60692       -1.58550
C         -0.20978       -4.14616       -2.39231
C          4.29922        0.94386       -0.85374
C          3.90564       -0.38609       -0.55596
C          2.61522       -0.60237       -0.10276
C          1.75783        0.44415        0.11423
C          2.16828        1.73868       -0.06760
C          3.44698        2.02644       -0.51599
O          5.52699        1.18647       -1.52534
C          4.83212       -1.59266       -0.77273
H          2.25289       -1.60099        0.06637
H          1.46071        2.52743        0.12490
C          3.86160        3.49674       -0.68023
C         -3.44493       -3.03988        2.87846
C         -3.47449       -5.17115        1.61787
C         -1.65863       -4.73897        3.31549
C          1.14405       -4.86268       -2.27466
C         -1.30483       -5.14501       -2.80734
C         -0.10787       -3.08996       -3.51643
C         -0.39823       -6.36823        0.45484
H         -4.00149       -2.49069        2.11951
H         -4.16599       -3.50203        3.55232
H         -2.86959       -2.32702        3.46713
H         -4.15587       -5.57009        2.36890
H         -4.07039       -4.74129        0.81341
H         -2.91391       -6.00652        1.20647
H         -1.01008       -5.50817        2.90290
H         -1.02351       -3.98511        3.78021
H         -2.26807       -5.19444        4.09562
H          1.42864       -5.31832       -3.22272
H          1.92698       -4.16140       -1.98835
H          1.11157       -5.64686       -1.52261
H         -2.27518       -4.65202       -2.85565
H         -1.09295       -5.57458       -3.78612
H         -1.38203       -5.96509       -2.09742
H          0.00482       -3.56898       -4.48867
H         -1.00376       -2.47064       -3.55042
H          0.75437       -2.43881       -3.37971
H          0.41339       -5.73335        0.81254
H         -0.79531       -6.95228        1.28469
H         -0.01601       -7.06077       -0.29503
C          5.41692        1.20483       -2.94327
C          4.66100       -2.11132       -2.20883
C          6.30219       -1.21612       -0.51450
C          4.48077       -2.73584        0.20676
C          3.46295        3.97969       -2.08334
C          3.14870        4.38373        0.36628
C          5.37471        3.67809       -0.46314
H          3.62390       -2.38678       -2.39757
H          4.93793       -1.35397       -2.93781
H          5.28193       -2.98951       -2.38399
H          6.95195       -2.08576       -0.60949
H          6.65022       -0.46714       -1.22145
H          6.42351       -0.80976        0.48905
H          5.21447       -3.53908        0.14245
H          4.46887       -2.37533        1.23501
H          3.50876       -3.17381       -0.01530
H          3.95636        3.39611       -2.85671
H          2.38777        3.88239       -2.23254
H          3.73104        5.02594       -2.22768
H          2.07723        4.44500        0.18179
H          3.30227        3.99507        1.37264
H          3.53572        5.40208        0.33795
H          5.66970        3.29994        0.51507
H          5.65528        4.72957       -0.51931
H          5.95132        3.14405       -1.21391
H          6.08368        0.45627       -3.37099
H          4.39044        0.99548       -3.24729
H          5.71628        2.18172       -3.32237
