171
-217.84367177
P         -1.61753        0.37804       -0.41028
P          1.60901       -0.41321       -0.31632
C         -0.86632        1.29751       -1.75477
C          0.91479       -1.41034       -1.63783
C         -0.06256        0.64518       -2.68264
C          0.57524        1.40868       -3.67942
C          0.36272        2.77653       -3.72464
C         -0.45623        3.40031       -2.80737
C         -1.06559        2.65485       -1.81739
C          1.13031       -2.76677       -1.60645
C          0.55208       -3.58481       -2.55656
C         -0.25838       -3.03427       -3.52645
C         -0.49004       -1.66935       -3.57418
C          0.12483       -0.83134       -2.62465
Cl         1.47428        0.35266        2.87740
Cl        -1.67696       -0.48257        2.78222
C         -1.37064       -1.11305       -4.63688
C          1.46252        0.77366       -4.69235
H         -0.61874        4.46437       -2.86094
H         -1.70240        3.13388       -1.09149
H          1.75378       -3.18930       -0.83536
H          0.72862       -4.64779       -2.53431
H          0.84926        3.35476       -4.49203
H         -0.72358       -3.66885       -4.26186
C         -3.99381       -3.24856       -1.69068
C         -2.93633       -3.41468       -0.80495
C         -2.21464       -2.28681       -0.43571
C         -2.53105       -1.05871       -0.95990
C         -3.56886       -0.91244       -1.84735
C         -4.33674       -2.00929       -2.21937
H         -4.57163       -4.11247       -1.95971
H         -1.40367       -2.35416        0.26863
H         -3.79098        0.06781       -2.23550
C         -4.22547        2.92729        2.29609
C         -4.80569        1.86765        1.60860
C         -3.99725        1.12602        0.75784
C         -2.66723        1.43095        0.60989
C         -2.11008        2.47665        1.30360
C         -2.87672        3.24023        2.17400
H         -4.83739        3.51983        2.94810
H         -4.40596        0.29232        0.21469
H         -1.06183        2.68491        1.17625
C          4.39724       -2.80572        2.34426
C          3.04566       -3.13037        2.33150
C          2.21368       -2.41103        1.48428
C          2.71437       -1.39435        0.70997
C          4.04933       -1.07746        0.74618
C          4.92298       -1.78569        1.56088
H          5.06310       -3.35068        2.98648
H          1.16063       -2.63234        1.44124
H          4.40229       -0.26167        0.14112
C          3.87804        3.28972       -1.57081
C          2.90845        3.39702       -0.58113
C          2.20203        2.25176       -0.23970
C          2.45935        1.06051       -0.87043
C          3.42341        0.96784       -1.84409
C          4.15843        2.08917       -2.21227
H          4.44910        4.15767       -1.84150
H          1.46312        2.28074        0.54297
H          3.60775        0.00857       -2.29712
Pd        -0.05857       -0.02330        1.28132
C         -2.40595       -5.80083       -1.38346
C         -2.62626       -4.80351       -0.23063
C         -3.81030       -5.26450        0.63759
C         -1.35628       -4.78281        0.64149
H         -1.59901       -5.46496       -2.03356
H         -2.14264       -6.78674       -1.00078
H         -3.30210       -5.91047       -1.99270
H         -3.61682       -6.24446        1.07351
H         -3.98657       -4.56103        1.45120
H         -4.72586       -5.33328        0.05104
H         -1.12869       -5.78027        1.01711
H         -0.49712       -4.43915        0.06661
H         -1.48098       -4.12781        1.50345
C         -5.06254       -1.32070       -4.52457
C         -5.54427       -1.81370       -3.14929
C         -6.49368       -0.76947       -2.53256
C         -6.33020       -3.12434       -3.34782
H         -4.42014       -2.06368       -4.99556
H         -5.90612       -1.13878       -5.19028
H         -4.50032       -0.39172       -4.43646
H         -7.38544       -0.64149       -3.14590
H         -6.81046       -1.07816       -1.53645
H         -6.00872        0.20196       -2.44755
H         -7.19314       -2.96326       -3.99391
H         -5.70904       -3.88851       -3.81467
H         -6.69735       -3.50886       -2.39638
C         -7.01030        1.82161        0.42785
C         -6.29050        1.50220        1.74909
C         -6.96769        2.29258        2.88555
C         -6.42365       -0.00145        2.06278
H         -8.06713        1.56132        0.48412
H         -6.93430        2.88338        0.19410
H         -6.57039        1.26685       -0.39916
H         -6.96212        3.36274        2.68011
H         -8.00780        1.98805        3.00155
H         -6.46319        2.11922        3.83597
H         -7.46674       -0.27610        2.21857
H         -6.03993       -0.61632        1.24980
H         -5.86863       -0.25580        2.96548
C         -0.85330        3.98286        3.48141
C         -2.23327        4.40702        2.93741
C         -3.09989        4.84490        4.13484
C         -2.06964        5.59637        1.97681
H         -0.15161        3.77284        2.67667
H         -0.41722        4.77058        4.09540
H         -0.93978        3.08561        4.09392
H         -4.05171        5.26088        3.80617
H         -3.30051        4.00317        4.79749
H         -2.59399        5.61500        4.71709
H         -1.47267        5.31696        1.11012
H         -3.03987        5.93544        1.61422
H         -1.57962        6.43526        2.47068
C          1.22585       -3.70230        3.96687
C          2.45099       -4.24498        3.20325
C          3.46960       -4.76518        4.23577
C          2.02398       -5.41207        2.29706
H          1.49984       -2.83308        4.56431
H          0.42985       -3.40118        3.28759
H          0.81740       -4.45844        4.63691
H          4.32884       -5.22335        3.74664
H          3.82480       -3.95670        4.87456
H          3.01758       -5.52146        4.87743
H          1.57400       -6.21623        2.87895
H          1.29695       -5.08407        1.55609
H          2.88205       -5.81900        1.76237
C          6.79723       -0.32513        0.64974
C          6.41992       -1.45250        1.63177
C          7.24073       -2.70445        1.27105
C          6.76768       -0.99442        3.05954
H          6.26459        0.59622        0.88495
H          7.86442       -0.10939        0.69918
H          6.56446       -0.60718       -0.37696
H          6.98451       -3.05738        0.27223
H          8.30891       -2.48874        1.28907
H          7.05429       -3.51751        1.97155
H          6.56252       -1.77883        3.78714
H          7.82231       -0.73148        3.13954
H          6.17890       -0.11998        3.33613
C          1.15753        5.11659       -0.09276
C          2.61810        4.70797        0.16184
C          3.53521        5.85154       -0.31195
C          2.84423        4.49482        1.67082
H          0.47150        4.33353        0.22512
H          0.90609        6.02830        0.44875
H          0.98919        5.29651       -1.15393
H          3.39473        6.05295       -1.37379
H          3.31592        6.77171        0.22955
H          4.58402        5.60972       -0.14071
H          2.64454        5.40932        2.22897
H          2.19366        3.71543        2.06462
H          3.87404        4.19688        1.86654
C          5.04226        3.04737       -4.36285
C          5.29754        2.02422       -3.24002
C          5.41664        0.62267       -3.87001
C          6.62680        2.35441       -2.53588
H          5.82502        2.99772       -5.11960
H          4.08853        2.85732       -4.85295
H          5.02052        4.06528       -3.97582
H          5.64225       -0.12945       -3.11423
H          4.49470        0.33772       -4.37532
H          6.21868        0.59737       -4.60759
H          6.60970        3.35675       -2.10939
H          6.81909        1.65079       -1.72648
H          7.46206        2.30235       -3.23403
H         -2.17917       -1.80593       -4.87062
H          2.35581        1.37603       -4.85653
H         -0.81028       -0.93444       -5.55530
H         -1.82148       -0.16993       -4.32478
H          0.95035        0.67148       -5.64996
H          1.78763       -0.21775       -4.37411
