111
-148.55654850
P         -1.61664        2.81785        0.12408
P         -0.59838       -0.15854        0.47099
C         -1.59787        2.05483        1.77018
C         -1.22859        0.73340        1.90997
C         -0.40240        4.20880        0.02749
C          0.71488        3.87607       -0.93797
C         -1.93251        2.79836        2.88385
H         -2.18449        3.84023        2.77136
C         -1.92152        2.20804        4.13567
H         -2.18656        2.78712        5.00520
C         -1.56750        0.87961        4.27192
H         -1.55536        0.42051        5.24676
C         -1.21093        0.14330        3.15676
H         -0.90527       -0.88580        3.25258
Pd        -1.38760        1.04709       -1.34351
Cl        -1.97911        2.49758       -2.95145
Cl        -1.09326       -0.73892       -2.66935
C         -1.26866        5.41103       -0.39894
C         -3.18707        3.73035       -0.24012
H          0.31621        3.67565       -1.93449
H          1.42737        4.69984       -1.02375
H          1.26239        2.98602       -0.62188
H         -1.16286        5.55219       -1.48331
H         -0.88802        6.33788        0.05609
H         -3.40526        3.53551       -1.29839
C         -2.77090        5.20048       -0.05417
C         -4.34379        3.27536        0.62443
H         -0.01682        4.34861        1.04594
H         -2.95560        5.49361        0.98839
H         -3.41003        5.85847       -0.66269
H         -4.52661        2.20464        0.50849
H         -4.14359        3.46008        1.68012
H         -5.26397        3.80578        0.36915
C         -0.77926       -4.69916        0.76343
C          0.09583       -3.96736        1.60652
C          0.13363       -2.58876        1.47372
C         -0.71661       -1.93706        0.61861
C         -1.63905       -2.63150       -0.11845
C         -1.71812       -4.01248       -0.04802
O         -0.68858       -6.11528        0.70117
C          1.01844       -4.64217        2.63401
H          0.84736       -2.00191        2.02669
H         -2.27814       -2.07673       -0.78295
C         -2.77390       -4.74330       -0.89201
C          3.66767        1.24590       -0.27967
C          3.01476        0.42305       -1.23266
C          1.72201        0.00922       -0.96340
C          1.10929        0.32358        0.21988
C          1.76727        1.04063        1.18351
C          3.06328        1.48418        0.98164
O          4.90652        1.86136       -0.60267
C          3.65440        0.02634       -2.57151
H          1.14681       -0.52500       -1.69965
H          1.24351        1.27026        2.09451
C          3.76871        2.25369        2.10872
C          2.37374       -4.94716        1.97828
C          1.25488       -3.71137        3.84561
C          0.38931       -5.93592        3.18248
C         -2.18009       -5.06983       -2.27090
C         -3.24712       -6.03257       -0.19666
C         -4.02337       -3.85610       -1.09399
C          0.24381       -6.59429       -0.26020
H          3.05442       -5.41581        2.68858
H          2.25982       -5.61754        1.12981
H          2.84113       -4.03162        1.61632
H          1.84128       -2.83489        3.57412
H          0.30756       -3.37414        4.26555
H          1.80275       -4.23108        4.63135
H         -0.59158       -5.73339        3.61122
H          0.26321       -6.67971        2.39996
H          1.01420       -6.37730        3.95849
H         -2.91070       -5.57588       -2.90132
H         -1.86764       -4.15835       -2.78013
H         -1.30867       -5.71398       -2.18268
H         -2.43554       -6.74813       -0.09165
H         -3.62961       -5.81286        0.79952
H         -4.04057       -6.51617       -0.76590
H         -4.40237       -3.49635       -0.13781
H         -3.80856       -2.99514       -1.72522
H         -4.82106       -4.41688       -1.58061
H          0.71301       -5.76023       -0.78358
H          1.00997       -7.18922        0.23659
H         -0.26862       -7.23282       -0.97961
C          4.78108        3.13909       -1.21541
C          3.31440        1.08923       -3.62777
C          5.18007       -0.12538       -2.43673
C          3.10728       -1.33727       -3.05322
C          5.28876        2.01248        2.07957
C          3.46467        3.75296        1.96634
C          3.26465        1.77915        3.49112
H          3.73943        0.82744       -4.59631
H          2.23494        1.18176       -3.74651
H          3.70001        2.06553       -3.34438
H          5.65175        0.81740       -2.17204
H          5.42610       -0.85049       -1.66171
H          5.62415       -0.46462       -3.37225
H          3.65133       -1.68393       -3.93147
H          3.21047       -2.09316       -2.27515
H          2.05685       -1.27469       -3.33340
H          5.78025        2.50709        2.91699
H          5.50904        0.94709        2.13796
H          5.73447        2.39487        1.16489
H          3.94943        4.32644        2.75596
H          3.81139        4.13744        1.01023
H          2.39208        3.93548        2.02705
H          3.85348        2.22628        4.29172
H          3.34427        0.69610        3.58183
H          2.22713        2.06277        3.66200
H          3.73022        3.40431       -1.33321
H          5.27852        3.89008       -0.60200
H          5.26323        3.12541       -2.19275
