111
-148.55111050
P         -2.59824        1.99219        0.11749
P          0.17489        0.47430        0.45814
C         -1.76344        1.96383        1.73190
C         -0.54152        1.34049        1.86607
C         -3.61313        3.53413       -0.05250
C         -3.29562        4.28172       -1.32836
C         -2.35868        2.54681        2.83306
H         -3.32399        3.01491        2.73268
C         -1.72347        2.51110        4.06243
H         -2.18869        2.96751        4.92087
C         -0.49839        1.88619        4.19209
H         -0.00627        1.85292        5.15017
C          0.09104        1.29241        3.09087
H          1.03544        0.77848        3.18033
Pd        -0.99742        1.24169       -1.38119
Cl        -2.38427        1.86397       -3.02850
Cl         0.60237        0.45628       -2.74977
C         -5.06030        3.00266        0.01647
C         -3.92064        0.70460       -0.03107
H         -3.55320        3.67909       -2.20007
H         -3.85936        5.21497       -1.39839
H         -2.23194        4.52144       -1.39506
H         -5.71602        3.64504       -0.58934
H         -5.43968        3.08077        1.04594
H         -3.60823        0.01800       -0.83015
C         -5.15644        1.52419       -0.45519
C         -4.09335       -0.04660        1.27120
H         -3.37913        4.16303        0.81676
H         -6.06602        1.04907       -0.05965
H         -5.26091        1.49960       -1.54997
H         -4.37958        0.63524        2.07413
H         -4.86826       -0.81300        1.19362
H         -3.16420       -0.53569        1.57119
C         -1.43828       -3.78650        0.46691
C         -0.92644       -3.22632       -0.73109
C         -0.44402       -1.93093       -0.69119
C         -0.38437       -1.22930        0.48349
C         -0.77242       -1.80738        1.66358
C         -1.27061       -3.09919        1.69658
O         -2.15741       -5.01057        0.42899
C         -0.93136       -3.97361       -2.07309
H         -0.12811       -1.43472       -1.59183
H         -0.70342       -1.22240        2.56362
C         -1.65945       -3.71639        3.04913
C          4.69594        0.83830        0.00671
C          4.01786       -0.30639       -0.48812
C          2.64449       -0.37216       -0.32716
C          1.95643        0.60461        0.34346
C          2.62116        1.65670        0.91844
C          3.99810        1.77527        0.81540
O          6.04010        1.08679       -0.37240
C          4.70855       -1.47941       -1.20345
H          2.08843       -1.19016       -0.75132
H          2.04874        2.39718        1.45060
C          4.68526        2.90172        1.60658
C         -2.23416       -3.65573       -2.82264
C          0.26312       -3.52779       -2.94810
C         -0.79188       -5.49239       -1.86582
C         -3.12514       -3.37838        3.36214
C         -1.45731       -5.24254        3.04027
C         -0.77199       -3.15123        4.18145
C         -3.55439       -4.85159        0.21432
H         -2.32308       -2.58443       -3.00225
H         -2.26424       -4.16327       -3.78636
H         -3.10449       -3.96810       -2.25027
H          1.20078       -3.62425       -2.40184
H          0.33485       -4.14107       -3.84595
H          0.16212       -2.49426       -3.27554
H          0.10927       -5.72051       -1.29755
H         -1.64050       -5.89872       -1.32146
H         -0.73236       -6.01439       -2.82052
H         -3.42981       -3.80931        4.31550
H         -3.26855       -2.29977        3.41975
H         -3.79142       -3.76044        2.59247
H         -2.11369       -5.72552        2.32070
H         -0.43031       -5.49195        2.77562
H         -1.66937       -5.67178        4.01919
H          0.28431       -3.26214        3.93782
H         -0.97346       -2.09669        4.36412
H         -0.95683       -3.67827        5.11724
H         -3.80973       -3.79392        0.13632
H         -3.84495       -5.36351       -0.70288
H         -4.10438       -5.29829        1.04249
C          6.14116        1.85542       -1.55966
C          4.19343       -2.81347       -0.61867
C          4.37354       -1.42471       -2.70364
C          6.23527       -1.46635       -1.01546
C          4.39581        4.25328        0.93350
C          4.13034        2.92611        3.04842
C          6.20635        2.69631        1.71550
H          4.71740       -3.65979       -1.06212
H          4.35174       -2.84707        0.45883
H          3.13088       -2.95647       -0.80675
H          4.82689       -2.26064       -3.23558
H          3.29674       -1.46815       -2.86435
H          4.73723       -0.50295       -3.15366
H          6.68448       -0.60034       -1.49556
H          6.49182       -1.43200        0.04276
H          6.69197       -2.35622       -1.44805
H          4.78759        4.27988       -0.08138
H          3.32378        4.44043        0.88071
H          4.85212        5.07105        1.49073
H          4.65526        3.66422        3.65433
H          3.07229        3.18159        3.07153
H          4.25253        1.95315        3.52360
H          6.65942        3.44894        2.36036
H          6.68480        2.76695        0.74157
H          6.43278        1.71379        2.12815
H          7.19320        1.99819       -1.80739
H          5.64362        1.34149       -2.38064
H          5.66978        2.82637       -1.41785
