105
-153.05938645
Cl         2.84842        2.35985        0.16099
Pd         0.80151        1.72103       -0.53473
P         -1.36075        1.23158       -1.26789
N         -1.39080       -0.38985       -0.68835
C         -0.41567       -1.26470       -1.15390
C         -0.05326       -2.33274       -0.29612
C          1.05238       -3.14012       -0.61651
C          1.45132       -4.24095        0.34228
C          2.75458       -4.97920       -0.01154
C          2.92520       -5.13064       -1.52604
C          2.93107       -3.75265       -2.20326
C          1.75646       -2.90105       -1.80010
C          1.36641       -1.86190       -2.64071
C          0.30418       -1.05368       -2.32857
H          0.02920       -0.23868       -2.97231
H          1.92309       -1.68766       -3.54579
H          3.85502       -3.21900       -1.95139
H          3.84026       -5.69108       -1.76486
H          3.60924       -4.42191        0.38765
H          1.52465       -3.80910        1.34764
C         -0.96688       -2.67215        0.82771
C         -1.09197       -1.86403        1.99193
C         -1.92822       -2.30974        3.01547
C         -2.65697       -3.46446        2.89355
C         -2.62790       -4.21273        1.72420
C         -3.52127       -5.42707        1.63459
C         -3.34112       -6.25804        0.35360
C         -3.12366       -5.35180       -0.86163
C         -1.86781       -4.48881       -0.67056
C         -1.80565       -3.79840        0.67410
H         -0.97860       -5.11242       -0.80554
H         -3.99660       -4.69943       -0.98927
H         -4.20109       -6.92370        0.19390
H         -4.56329       -5.09391        1.71116
H         -3.29641       -3.78362        3.69931
H         -2.01056       -1.71674        3.91000
N         -0.51007       -0.60926        2.16246
P          0.80495        0.26637        1.34995
C          2.25880       -0.78294        1.31673
C          2.46004       -1.62092        2.38786
C          3.61036       -2.38701        2.45828
C          4.56220       -2.32323        1.44963
C          4.33973       -1.47272        0.37561
C          3.19185       -0.70541        0.31022
H          3.03094       -0.03257       -0.51572
H          5.07844       -1.40554       -0.40467
C          5.81608       -3.12221        1.53398
H          3.77575       -3.03748        3.30000
H          1.71681       -1.66551        3.16849
C          1.17895        1.60301        2.50528
C          2.31384        1.56566        3.28037
C          2.59161        2.60338        4.15061
C          1.73668        3.69251        4.24717
C          0.59117        3.70983        3.46416
C          0.31749        2.66995        2.59548
H         -0.56546        2.69425        1.98125
H         -0.08476        4.54482        3.53606
C          2.02265        4.80245        5.19780
H          3.47969        2.57510        4.75862
H          2.98881        0.73062        3.19608
H         -0.59753       -0.19289        3.08189
H         -1.32548       -0.33597        0.32621
C         -1.94660        1.21434       -2.96115
C         -1.39482        2.02463       -3.92345
C         -1.87357        1.98057       -5.21859
C         -2.90595        1.11709       -5.56003
C         -3.45628        0.31053       -4.57256
C         -2.97418        0.35769       -3.27616
H         -3.38667       -0.27531       -2.50583
H         -4.26401       -0.35517       -4.82447
C         -3.43971        1.08603       -6.94996
H         -1.44698        2.61793       -5.97422
H         -0.58640        2.68284       -3.65471
C         -2.39231        2.26958       -0.23788
C         -2.56877        1.93913        1.08549
C         -3.32699        2.75724        1.90140
C         -3.91523        3.90864        1.39595
C         -3.71410        4.23102        0.06019
C         -2.95408        3.41214       -0.75532
H         -2.78766        3.66237       -1.79108
H         -4.15158        5.13132       -0.33626
C         -4.70478        4.80708        2.28296
H         -3.45879        2.51049        2.94118
H         -2.08374        1.06625        1.49141
Cl         0.87268        3.29412       -2.14067
H          2.94091       -3.86197       -3.29526
H          2.79261       -5.96015        0.48261
H          2.09740       -5.72916       -1.92684
H          0.63616       -4.96752        0.41250
H         -3.05863       -5.94355       -1.78570
H         -1.81217       -3.72769       -1.45940
H         -3.34982       -6.05332        2.51944
H         -2.47422       -6.92114        0.46796
H          6.15357       -3.42980        0.54312
H          6.61486       -2.54044        1.99583
H          5.67032       -4.02489        2.12905
H          1.64197        5.75203        4.81908
H          1.55575        4.61399        6.16549
H          3.09558        4.91721        5.35788
H         -3.83867        0.10118       -7.19687
H         -4.24198        1.81483       -7.07300
H         -2.65964        1.31813       -7.67638
H         -5.20670        4.24174        3.06944
H         -4.05869        5.54580        2.75925
H         -5.47084        5.34249        1.72036
