105
-153.06374826
Cl         0.02961        1.90641        3.08557
Pd        -0.43819        1.29928        0.96852
P         -1.10283        0.53712       -1.16080
N         -0.62877       -0.94631       -1.98566
C          0.23126       -1.97959       -1.61713
C          0.31631       -2.47485       -0.29217
C          1.23573       -3.50428       -0.00004
C          1.30795       -4.03880        1.41109
C          2.08717       -5.35483        1.55983
C          3.37762       -5.32301        0.73627
C          3.06178       -5.11551       -0.75215
C          2.04221       -4.03484       -1.01078
C          1.89796       -3.56998       -2.31153
C          1.00813       -2.57260       -2.61133
H          0.92336       -2.20836       -3.62037
H          2.50942       -3.99634       -3.08881
H          3.97905       -4.87618       -1.30546
H          4.01467       -4.50308        1.09133
H          2.30512       -5.56320        2.61684
H          1.76615       -3.27112        2.04520
C         -0.67653       -2.08194        0.73808
C         -0.22941       -1.51028        1.96155
C         -1.14371       -1.37800        3.01048
C         -2.44428       -1.78458        2.86858
C         -2.90078       -2.34631        1.68256
C         -4.33227       -2.82431        1.63387
C         -4.65126       -3.74871        0.44884
C         -3.99622       -3.23829       -0.83676
C         -2.47136       -3.14498       -0.67497
C         -2.02176       -2.48173        0.60487
H         -2.03035       -4.14774       -0.72015
H         -4.39749       -2.24689       -1.08042
H         -5.73757       -3.85244        0.31605
H         -4.99271       -1.95093        1.60945
H         -3.13221       -1.67345        3.68968
H         -0.81452       -0.93036        3.93177
N          1.07915       -1.03423        2.13485
P          1.64160        0.20342        1.01234
C          2.62190       -0.33261       -0.37623
C          2.42100        0.27574       -1.59027
C          3.21403       -0.07215       -2.66840
C          4.21397       -1.02591       -2.52891
C          4.42062       -1.60310       -1.28241
C          3.62525       -1.25488       -0.20545
H          3.77882       -1.69702        0.76616
H          5.20516       -2.33027       -1.16130
C          5.07153       -1.39906       -3.68712
H          3.05723        0.39338       -3.62625
H          1.63813        1.00896       -1.68857
C          2.58616        1.49484        1.82655
C          3.31244        1.21095        2.95791
C          4.04020        2.21274        3.57442
C          4.05201        3.50027        3.05454
C          3.31272        3.76504        1.90955
C          2.58664        2.76216        1.29308
H          2.01474        2.96392        0.40059
H          3.30550        4.76295        1.50553
C          4.80895        4.58672        3.73584
H          4.60265        2.00005        4.46746
H          3.31248        0.20817        3.35350
H          1.25613       -0.62721        3.04416
H         -0.89291       -0.86101       -2.95927
C         -0.64360        1.92784       -2.21196
C         -0.95034        3.21260       -1.83290
C         -0.58369        4.27994       -2.62966
C          0.09105        4.06945       -3.82380
C          0.39799        2.76732       -4.19327
C          0.02604        1.70297       -3.39268
H          0.27550        0.69587       -3.68072
H          0.93387        2.59206       -5.11051
C          0.51406        5.22027       -4.66897
H         -0.81783        5.28609       -2.32625
H         -1.47633        3.37576       -0.90800
C         -2.89830        0.49842       -1.12575
C         -3.55974        0.66313       -2.31987
C         -4.94278        0.63202       -2.35268
C         -5.67229        0.44952       -1.18597
C         -4.98632        0.27823        0.00785
C         -3.60409        0.29111        0.03440
H         -3.06954        0.15202        0.96040
H         -5.54373        0.14390        0.91880
C         -7.15987        0.39504       -1.21650
H         -5.46366        0.75382       -3.28693
H         -2.99062        0.81658       -3.22366
Cl        -2.27447        2.60607        0.94605
H          2.69385       -6.05296       -1.18605
H          1.46081       -6.18881        1.21911
H          3.96309       -6.24054        0.89026
H          0.28684       -4.16371        1.79301
H         -4.26057       -3.87888       -1.69002
H         -2.04938       -2.60004       -1.52586
H         -4.56287       -3.33293        2.57884
H         -4.28357       -4.75972        0.66530
H          5.40973       -2.43333       -3.60860
H          4.52709       -1.30034       -4.62734
H          5.95315       -0.75880       -3.73897
H          4.18029        5.09515        4.46805
H          5.68171        4.19172        4.25768
H          5.16058        5.33062        3.01957
H          1.48964        5.59350       -4.35448
H          0.58591        4.93316       -5.71896
H         -0.19954        6.04248       -4.59917
H         -7.55794        0.94597       -2.06971
H         -7.50786       -0.63633       -1.28918
H         -7.58689        0.83171       -0.31260
