111
-148.55490905
P         -2.74205        1.78821       -0.26678
P          0.15810        0.62084        0.17027
C         -1.82480        2.20921        1.23936
C         -0.53367        1.75267        1.39440
C         -3.78246        3.20677       -0.84345
C         -3.13928        3.94890       -1.99450
C         -2.40484        2.98279        2.22461
H         -3.42118        3.32134        2.10832
C         -1.68377        3.30487        3.36143
H         -2.13573        3.90909        4.13104
C         -0.38720        2.85194        3.51161
H          0.17345        3.10067        4.39764
C          0.18750        2.06878        2.52721
H          1.19194        1.69317        2.63892
Pd        -1.18928        0.86560       -1.70918
Cl        -2.75696        1.00880       -3.30677
Cl         0.39587       -0.11332       -2.95849
C         -5.12193        2.52514       -1.17682
C         -4.04705        0.49374       -0.03844
H         -3.75909        4.78515       -2.32607
H         -2.15930        4.34237       -1.71439
H         -2.99396        3.28941       -2.85064
H         -5.11285        2.22985       -2.23517
H         -5.95288        3.23992       -1.07550
H         -3.88124       -0.24603       -0.83320
C         -5.35547        1.26797       -0.29044
C         -3.95461       -0.15400        1.32603
H         -3.90380        3.87372        0.01938
H         -5.77473        1.57673        0.67699
H         -6.11083        0.60609       -0.74047
H         -4.74351       -0.89567        1.47110
H         -2.99390       -0.65363        1.46179
H         -4.04991        0.59253        2.11663
C         -1.25092       -3.55868        1.30195
C         -0.87539       -3.27946       -0.03671
C         -0.43855       -2.00246       -0.33887
C         -0.31770       -1.04462        0.63209
C         -0.56855       -1.34255        1.94549
C         -0.99467       -2.60545        2.32120
O         -1.92495       -4.76947        1.61251
C         -0.99193       -4.31185       -1.16780
H         -0.20381       -1.72444       -1.35115
H         -0.44990       -0.56287        2.67728
C         -1.21099       -2.90429        3.81245
C          4.69703        0.91201       -0.05778
C          3.90922        1.44772       -1.10900
C          2.53017        1.37843       -0.99751
C          1.93929        0.73118        0.05535
C          2.69783        0.11154        1.01442
C          4.08137        0.15701        0.97264
O          6.09619        1.15409       -0.02056
C          4.52583        2.09664       -2.35854
H          1.89360        1.81873       -1.74516
H          2.18795       -0.41645        1.80192
C          4.88839       -0.58648        2.04856
C         -2.38042       -4.19503       -1.81523
C          0.08027       -4.05548       -2.25167
C         -0.76754       -5.74104       -0.64236
C         -2.63908       -2.50104        4.21017
C         -0.97388       -4.39356        4.12192
C         -0.21118       -2.10157        4.67599
C         -3.34190       -4.67563        1.53246
H         -2.53518       -3.19324       -2.21569
H         -2.49128       -4.90645       -2.63307
H         -3.16974       -4.38752       -1.09238
H         -0.10571       -3.12911       -2.79299
H          1.07399       -3.99974       -1.80819
H          0.08635       -4.85904       -2.98766
H         -1.53632       -6.02675        0.07119
H         -0.78781       -6.46547       -1.45616
H          0.19743       -5.81877       -0.14261
H         -2.82248       -2.70390        5.26496
H         -2.80126       -1.43713        4.03883
H         -3.37905       -3.04647        3.62905
H         -1.06126       -4.59079        5.19007
H         -1.69628       -5.02517        3.61115
H          0.02171       -4.69812        3.80089
H         -0.27457       -2.40251        5.72147
H          0.81187       -2.26998        4.34064
H         -0.41228       -1.03200        4.63891
H         -3.64061       -3.67052        1.23194
H         -3.71565       -5.39738        0.80632
H         -3.78008       -4.90969        2.50249
C          6.46055        2.35023        0.65650
C          3.60473        1.89703       -3.58436
C          4.70336        3.60300       -2.11700
C          5.87942        1.45144       -2.70773
C          6.21875       -1.11004        1.47772
C          5.15426        0.35989        3.22901
C          4.10616       -1.81421        2.56931
H          2.68071        2.46559       -3.49233
H          4.09633        2.23206       -4.49733
H          3.34760        0.84542       -3.70859
H          5.13151        4.09083       -2.99231
H          3.74450        4.07446       -1.90289
H          5.36068        3.79207       -1.27169
H          6.61352        1.61957       -1.92375
H          5.76895        0.37523       -2.83644
H          6.28384        1.86407       -3.63165
H          6.76274       -1.69162        2.22157
H          6.04033       -1.74748        0.61239
H          6.86378       -0.29335        1.16297
H          5.71526       -0.14459        4.01531
H          5.72490        1.23060        2.91530
H          4.21687        0.71454        3.65708
H          4.72708       -2.41552        3.23299
H          3.78622       -2.44944        1.74370
H          3.22509       -1.51937        3.13745
H          7.13244        2.11228        1.48101
H          6.98632        3.01394       -0.02959
H          5.57389        2.85426        1.04308
