171
-217.84596903
P         -1.61678        0.39298       -0.33633
P          1.62386       -0.42843       -0.30440
C         -0.88182        1.32603       -1.68142
C          0.89240       -1.39364       -1.63353
C         -0.08686        0.68755       -2.62603
C          0.53712        1.46344       -3.62170
C          0.31220        2.82970       -3.65492
C         -0.50260        3.43922       -2.72423
C         -1.09182        2.68211       -1.73057
C          1.08656       -2.75374       -1.62711
C          0.47583       -3.54919       -2.57618
C         -0.34518       -2.97309       -3.52203
C         -0.55456       -1.60436       -3.54734
C          0.09111       -0.79023       -2.59676
Cl         1.59216        0.24776        2.83606
Cl        -1.64404       -0.44731        2.80452
C         -1.45691       -1.02367       -4.57972
C          1.41389        0.83798       -4.64961
H         -0.67657        4.50186       -2.76942
H         -1.72116        3.14970       -0.99051
H          1.71921       -3.19791       -0.87622
H          0.63491       -4.61512       -2.57136
H          0.78406        3.41776       -4.42397
H         -0.83816       -3.58985       -4.25452
C         -3.96061       -3.23484       -1.65980
C         -4.26580       -2.00208       -2.22370
C         -3.51377       -0.90339       -1.82463
C         -2.51469       -1.04890       -0.89424
C         -2.22457       -2.27371       -0.34785
C         -2.93794       -3.40084       -0.73432
H         -4.55169       -4.08918       -1.93336
H         -3.70785        0.07794       -2.22340
H         -1.44372       -2.33869        0.38967
C         -4.31075        2.94600        2.27657
C         -4.87740        1.94275        1.49847
C         -4.03275        1.19098        0.69410
C         -2.68449        1.44325        0.66152
C         -2.14169        2.44176        1.43133
C         -2.94501        3.20825        2.26523
H         -4.94638        3.52901        2.91461
H         -4.43019        0.38638        0.10074
H         -1.07785        2.60739        1.40242
C          4.50090       -2.87007        2.21619
C          3.15440       -3.21796        2.21303
C          2.29312       -2.47986        1.41201
C          2.76191       -1.42874        0.66457
C          4.09113       -1.08967        0.69212
C          4.99184       -1.80728        1.46622
H          5.18174       -3.43470        2.82331
H          1.24227       -2.71409        1.38462
H          4.42903       -0.24623        0.11586
C          3.82553        3.32940       -1.51031
C          4.13340        2.13862       -2.15763
C          3.41887        1.00104       -1.80097
C          2.44280        1.07057       -0.83800
C          2.15060        2.25513       -0.20905
C          2.84678        3.41337       -0.52716
H          4.38018        4.21016       -1.77319
H          3.62684        0.04762       -2.25636
H          1.38280        2.26963        0.54484
Pd        -0.02290       -0.05281        1.30488
C         -6.75590       -2.10604       -2.40563
C         -5.45203       -1.87155       -3.18938
C         -5.33042       -2.91617       -4.31562
C         -5.50821       -0.47165       -3.83230
H         -6.77410       -3.10180       -1.96362
H         -6.85573       -1.38107       -1.59798
H         -7.62561       -2.01063       -3.05545
H         -4.39248       -2.79633       -4.85636
H         -5.36395       -3.93201       -3.92450
H         -6.14593       -2.81221       -5.03117
H         -5.66687        0.30153       -3.08104
H         -4.58541       -0.24889       -4.36731
H         -6.32945       -0.40656       -4.54591
C         -2.44298       -5.80458       -1.27231
C         -2.65572       -4.78559       -0.13684
C         -3.85388       -5.21282        0.72859
C         -1.39027       -4.77157        0.74244
H         -3.33679       -5.91164       -1.88536
H         -1.62708       -5.49095       -1.92243
H         -2.19638       -6.78787       -0.87214
H         -3.68182       -6.19022        1.17899
H         -4.02315       -4.49521        1.53124
H         -4.76597       -5.27208        0.13554
H         -0.52580       -4.43783        0.16948
H         -1.51325       -4.11098        1.60032
H         -1.17277       -5.76864        1.12500
C         -7.15592        2.54906        2.46076
C         -6.37773        1.61751        1.51222
C         -6.57430        0.16374        1.98234
C         -6.94516        1.78151        0.08976
H         -8.21861        2.30687        2.45436
H         -6.80168        2.44908        3.48655
H         -7.05337        3.59114        2.15852
H         -7.63250       -0.09346        2.02467
H         -6.08732       -0.54036        1.30850
H         -6.15094        0.02085        2.97630
H         -6.45711        1.10569       -0.61137
H         -8.01374        1.56827        0.06855
H         -6.79618        2.79968       -0.26916
C         -1.58389        5.31385        2.28514
C         -2.29255        4.26834        3.16389
C         -1.26422        3.58157        4.08365
C         -3.33019        4.99080        4.04396
H         -1.12134        6.08962        2.89509
H         -0.80245        4.85315        1.68439
H         -2.29045        5.79162        1.60675
H         -0.79232        4.30299        4.75026
H         -1.74516        2.81855        4.69516
H         -0.47733        3.09606        3.50788
H         -2.84818        5.73635        4.67628
H         -4.07163        5.50623        3.43375
H         -3.84654        4.28841        4.69800
C          1.38868       -3.88364        3.87136
C          2.59420       -4.37872        3.04703
C          3.64633       -4.94039        4.02266
C          2.14832       -5.50490        2.09862
H          1.67534       -3.04465        4.50497
H          0.57278       -3.55275        3.23062
H          1.00281       -4.67575        4.51265
H          3.21944       -5.73328        4.63674
H          4.49543       -5.36387        3.48675
H          4.01205       -4.16229        4.69248
H          1.39446       -5.14997        1.39788
H          2.99236       -5.87645        1.51784
H          1.72478       -6.34105        2.65470
C          7.31518       -2.28922        2.39062
C          6.46805       -1.38589        1.47443
C          6.57544        0.06494        1.98122
C          7.02896       -1.47551        0.04280
H          7.27934       -3.32712        2.06006
H          8.35935       -1.97672        2.38308
H          6.96449       -2.24134        3.42138
H          6.15467        0.15423        2.98252
H          7.61522        0.38902        2.02056
H          6.03671        0.75323        1.33082
H          8.08135       -1.19339        0.01730
H          6.94161       -2.49134       -0.34207
H          6.49073       -0.81423       -0.63513
C          5.03482        3.14806       -4.27733
C          5.28065        2.09837       -3.17702
C          5.40241        0.71348       -3.84267
C          6.60282        2.40866       -2.45145
H          5.82087        3.11243       -5.03146
H          4.08243        2.97141       -4.77555
H          5.01518        4.15730       -3.86831
H          6.20481        0.70838       -4.58027
H          5.62902       -0.05808       -3.10722
H          4.48056        0.44121       -4.35535
H          6.78600        1.68411       -1.65814
H          7.44516        2.37406       -3.14212
H          6.58097        3.39963       -1.99921
C          2.35830        4.48577        1.70101
C          2.50500        4.73017        0.18509
C          1.18275        5.26968       -0.38201
C          3.60573        5.78881       -0.02292
H          3.26552        4.04037        2.10856
H          2.17420        5.42065        2.23007
H          1.52831        3.81718        1.92284
H          1.27841        5.47715       -1.44750
H          0.38267        4.54199       -0.25491
H          0.88741        6.19215        0.11754
H          3.68614        6.07648       -1.07078
H          3.38536        6.69225        0.54567
H          4.57407        5.41406        0.30846
H         -0.96531       -0.98929       -5.55288
H          0.86633        0.66823       -5.57758
H         -1.76308       -0.00977       -4.31877
H         -2.36198       -1.62287       -4.68290
H          1.80553       -0.12107       -4.30774
H          2.26557        1.47939       -4.87752
