111
-148.55748074
P         -2.60013        2.18526        0.30559
P         -0.01123        0.37437        0.43048
C         -1.69109        2.02872        1.86512
C         -0.55236        1.25444        1.90737
C         -3.27082        3.89252        0.06662
C         -2.48679        4.64213       -0.98858
C         -2.13433        2.66516        3.00685
H         -3.03725        3.25251        2.97363
C         -1.42442        2.53334        4.18787
H         -1.76866        3.03077        5.07989
C         -0.27705        1.76424        4.22509
H          0.27574        1.66195        5.14440
C          0.15874        1.11953        3.08123
H          1.04973        0.51163        3.09450
Pd        -1.20203        1.33444       -1.31292
Cl        -2.73315        1.83808       -2.86894
Cl         0.30947        0.44552       -2.71312
C         -4.74539        3.63119       -0.29494
C         -4.16758        1.20446        0.28826
H         -2.88517        5.64763       -1.14326
H         -1.43360        4.73248       -0.71148
H         -2.52945        4.12003       -1.94589
H         -4.83769        3.59356       -1.38921
H         -5.37474        4.47530        0.02580
H         -4.18113        0.66972       -0.67066
C         -5.25712        2.29304        0.31161
C         -4.21928        0.23510        1.45024
H         -3.19763        4.39986        1.03680
H         -5.56935        2.45868        1.35191
H         -6.15846        1.94307       -0.21427
H         -3.38193       -0.46619        1.42132
H         -4.16300        0.76850        2.40092
H         -5.14691       -0.34201        1.44891
C         -1.13306       -4.04128        0.58506
C         -0.18339       -3.51905        1.49969
C          0.13286       -2.17278        1.42046
C         -0.49823       -1.34835        0.52576
C         -1.49688       -1.82751       -0.28171
C         -1.86522       -3.16145       -0.25192
O         -1.32245       -5.44511        0.48090
C          0.53361       -4.39491        2.53893
H          0.89790       -1.75046        2.04882
H         -1.97975       -1.14864       -0.96097
C         -3.01067       -3.63767       -1.15924
C          4.46183        0.85513       -0.28299
C          3.65906        1.99636       -0.02653
C          2.30835        1.80810        0.21940
C          1.74459        0.56161        0.14297
C          2.49464       -0.52694       -0.21681
C          3.85116       -0.41133       -0.46675
O          5.87672        0.97200       -0.32998
C          4.23129        3.42248       -0.00010
H          1.67231        2.63793        0.47649
H          2.00027       -1.47831       -0.30379
C          4.63930       -1.65362       -0.91029
C         -0.37539       -5.53942        3.02248
C          1.82082       -4.96352        1.92236
C          0.91136       -3.56329        3.78598
C         -2.43859       -4.03715       -2.52789
C         -3.76307       -4.82344       -0.52884
C         -4.04737       -2.51058       -1.37128
C         -0.47076       -6.07566       -0.46777
H         -0.62161       -6.22061        2.21187
H          0.11010       -6.12142        3.80545
H         -1.30894       -5.14491        3.42225
H          1.60427       -5.57661        1.05099
H          2.48272       -4.15874        1.60420
H          2.35977       -5.57942        2.64183
H          1.29968       -4.20565        4.57606
H          1.68459       -2.82966        3.56268
H          0.04165       -3.03755        4.17931
H         -1.93203       -3.19228       -2.99405
H         -1.71613       -4.84417       -2.43347
H         -3.22928       -4.36952       -3.19994
H         -3.11784       -5.69156       -0.42096
H         -4.13509       -4.55903        0.46045
H         -4.61308       -5.11940       -1.14314
H         -4.39252       -2.11741       -0.41590
H         -3.63764       -1.68801       -1.95540
H         -4.91711       -2.88246       -1.91231
H          0.18707       -5.34207       -0.93569
H          0.12924       -6.83774        0.02929
H         -1.07344       -6.56401       -1.23330
C          6.51625        0.81589        0.93045
C          5.41447        3.56420       -0.97503
C          3.16108        4.44633       -0.44321
C          4.67668        3.76592        1.42933
C          5.21588       -2.36044        0.32562
C          3.72069       -2.64660       -1.65921
C          5.77145       -1.26815       -1.87935
H          6.24833        2.93094       -0.68301
H          5.11614        3.27885       -1.98327
H          5.77636        4.59159       -1.00586
H          2.72856        4.16333       -1.40258
H          2.35591        4.52984        0.28518
H          3.59714        5.43906       -0.55239
H          5.08042        4.77679        1.48030
H          3.83621        3.70265        2.12016
H          5.44387        3.07948        1.77930
H          5.90327       -1.71383        0.86516
H          4.41980       -2.64436        1.01327
H          5.75626       -3.26338        0.04248
H          2.98622       -3.09758       -0.99330
H          3.18969       -2.14752       -2.46943
H          4.30183       -3.46084       -2.09141
H          5.37301       -0.73094       -2.73938
H          6.29428       -2.15226       -2.24325
H          6.50508       -0.62709       -1.39656
H          7.24387        0.00656        0.87154
H          7.04805        1.73157        1.18792
H          5.78211        0.59098        1.70513
