111
-148.55354374
P         -2.48619        2.08350        1.02218
P          0.11719        0.36858        0.49124
C         -1.38080        1.67660        2.40126
C         -0.22382        0.96967        2.15516
C         -3.21587        3.77442        1.20844
C         -2.57322        4.76527        0.26251
C         -1.69116        2.05965        3.69052
H         -2.60704        2.59414        3.88223
C         -0.83311        1.74065        4.72897
H         -1.07456        2.03953        5.73596
C          0.33009        1.03834        4.47750
H          0.99659        0.78836        5.28648
C          0.63389        0.64738        3.18573
H          1.52891        0.08376        2.97273
Pd        -1.32414        1.52923       -0.89397
Cl        -2.96464        2.50209       -2.07390
Cl        -0.07202        0.93307       -2.66141
C         -4.71620        3.52687        0.96488
C         -4.02758        1.06081        0.98117
H         -2.71745        4.46146       -0.77501
H         -3.00416        5.76275        0.37586
H         -1.49682        4.83826        0.43549
H         -4.93280        3.69684       -0.09882
H         -5.32146        4.26568        1.51194
H         -4.14652        0.73243       -0.06015
C         -5.12561        2.07599        1.34977
C         -3.92427       -0.12868        1.91098
H         -3.04446        4.07321        2.25035
H         -5.30845        2.02187        2.43181
H         -6.07895        1.79794        0.87521
H         -4.84323       -0.71944        1.90860
H         -3.10018       -0.78441        1.62175
H         -3.74017        0.19593        2.93679
C         -1.23692       -3.95380        0.01012
C         -1.14704       -3.39249        1.31004
C         -0.71844       -2.08123        1.43082
C         -0.45782       -1.31960        0.32226
C         -0.64758       -1.82513       -0.93603
C         -1.07494       -3.12632       -1.13011
O         -1.45124       -5.34893       -0.14755
C         -1.47420       -4.19459        2.57931
H         -0.57281       -1.63694        2.39935
H         -0.44917       -1.17724       -1.77184
C         -1.33113       -3.61857       -2.56276
C          4.49191        0.74568       -0.70972
C          3.86769       -0.52761       -0.69914
C          2.54637       -0.60461       -0.29315
C          1.83379        0.52367        0.01869
C          2.39873        1.76653       -0.09531
C          3.71738        1.91478       -0.49488
O          5.89538        0.84817       -0.90249
C          4.59777       -1.81639       -1.10894
H          2.05020       -1.55644       -0.21795
H          1.78925        2.62454        0.13163
C          4.29125        3.32837       -0.67918
C         -2.59321       -5.21785        2.31311
C         -0.20645       -4.91116        3.06801
C         -1.97680       -3.26119        3.70437
C         -0.02527       -4.17535       -3.14958
C         -2.43047       -4.69563       -2.59261
C         -1.81759       -2.45467       -3.45724
C         -0.25392       -6.11270       -0.22256
H         -2.28267       -5.96509        1.58696
H         -2.87056       -5.74217        3.22723
H         -3.48161       -4.72194        1.92339
H         -0.40463       -5.47920        3.97660
H          0.17082       -5.60067        2.31671
H          0.58322       -4.19200        3.28452
H         -1.19091       -2.59658        4.06004
H         -2.81219       -2.65273        3.35977
H         -2.31800       -3.83986        4.56247
H          0.35343       -5.00348       -2.55516
H         -0.17559       -4.53200       -4.16819
H          0.74461       -3.40471       -3.17260
H         -2.65633       -4.99697       -3.61518
H         -2.12933       -5.58599       -2.04656
H         -3.34721       -4.32021       -2.13915
H         -1.03320       -1.71837       -3.62528
H         -2.12590       -2.82125       -4.43595
H         -2.67024       -1.94852       -3.00537
H          0.61786       -5.46636       -0.11248
H         -0.25118       -6.86459        0.56646
H         -0.20606       -6.62671       -1.18234
C          6.65132        0.78212        0.30002
C          5.66506       -1.53221       -2.18137
C          5.24724       -2.44955        0.13055
C          3.60499       -2.83159       -1.72139
C          4.90091        3.80794        0.64649
C          5.35526        3.35250       -1.79179
C          3.17959        4.31692       -1.09916
H          6.44975       -0.88448       -1.79855
H          6.13554       -2.45470       -2.52064
H          5.21865       -1.04090       -3.04528
H          4.49394       -2.68590        0.88177
H          5.76658       -3.37177       -0.12877
H          5.96789       -1.77429        0.58590
H          3.03389       -2.37311       -2.52820
H          4.13395       -3.69123       -2.13220
H          2.90513       -3.21271       -0.97910
H          5.30484        4.81528        0.54867
H          4.14823        3.82066        1.43445
H          5.70667        3.15292        0.96912
H          5.71309        4.36615       -1.97044
H          6.21584        2.74144       -1.53087
H          4.94318        2.96843       -2.72435
H          2.46465        4.48529       -0.29520
H          2.63795        3.94383       -1.96808
H          3.60230        5.28707       -1.35929
H          5.98912        0.68408        1.16116
H          7.32651       -0.07249        0.26165
H          7.25153        1.68595        0.40363
