111
-148.55373439
P         -2.45626        2.17906        0.50689
P          0.10593        0.32721        0.47666
C         -1.40148        2.08906        1.97299
C         -0.29594        1.26723        1.96280
C         -2.69603        3.92661       -0.04685
C         -1.79267        4.26170       -1.21445
C         -1.69774        2.83756        3.09386
H         -2.55335        3.49319        3.08509
C         -0.89160        2.74538        4.21512
H         -1.12305        3.32637        5.09291
C          0.20821        1.90912        4.20964
H          0.83533        1.83557        5.08288
C          0.50827        1.17006        3.07917
H          1.36701        0.51878        3.06017
Pd        -1.49940        0.84889       -1.12129
Cl        -3.28359        1.35174       -2.38361
Cl        -0.41957       -0.45892       -2.58430
C         -4.20096        3.97771       -0.36488
C         -4.22002        1.69500        0.81427
H         -0.73999        4.12772       -0.95340
H         -2.00420        3.61313       -2.06652
H         -1.93238        5.29388       -1.54402
H         -4.34592        3.71647       -1.42232
H         -4.58091        5.00538       -0.25924
H         -4.44787        0.93006        0.06008
C         -5.00554        2.99063        0.52673
C         -4.42725        1.15284        2.21434
H         -2.46495        4.55993        0.81964
H         -5.24512        3.47764        1.48175
H         -5.97720        2.75346        0.06802
H         -3.74161        0.33277        2.43410
H         -4.24956        1.92749        2.96144
H         -5.44840        0.79128        2.35591
C         -0.90159       -4.08611        0.96217
C         -1.89509       -3.09580        1.17640
C         -1.52528       -1.76482        1.06548
C         -0.26188       -1.41501        0.66230
C          0.65208       -2.37181        0.30372
C          0.35225       -3.71924        0.40920
O         -1.13201       -5.43191        1.35151
C         -3.35555       -3.43314        1.51437
H         -2.22676       -0.97781        1.28235
H          1.60760       -2.05112       -0.07056
C          1.37909       -4.76180       -0.05888
C          4.34262        1.24009       -0.94968
C          3.22489        1.67302       -1.71076
C          1.95698        1.40099       -1.22492
C          1.77481        0.65405       -0.09026
C          2.85051        0.12813        0.57854
C          4.14728        0.36790        0.15371
O          5.63747        1.73981       -1.24323
C          3.33297        2.39848       -3.06290
H          1.08869        1.77204       -1.74216
H          2.66887       -0.47828        1.44926
C          5.29372       -0.33415        0.90207
C         -3.72871       -4.86210        1.07925
C         -3.57315       -3.27253        3.02634
C         -4.30571       -2.47893        0.75673
C          2.22824       -4.20203       -1.22220
C          2.31053       -5.12280        1.10760
C          0.67814       -6.02859       -0.58303
C         -0.77424       -5.69675        2.70153
H         -3.16299       -5.60681        1.63296
H         -4.78686       -5.05994        1.24859
H         -3.52150       -5.00634        0.01943
H         -4.60368       -3.49810        3.29930
H         -2.92081       -3.93926        3.58740
H         -3.35581       -2.25264        3.34257
H         -4.10204       -2.50182       -0.31352
H         -5.34607       -2.76589        0.90743
H         -4.20381       -1.45136        1.09645
H          2.87213       -4.97587       -1.63941
H          1.58945       -3.82963       -2.02266
H          2.87454       -3.38955       -0.89568
H          3.07380       -5.83355        0.79181
H          2.81306       -4.23485        1.48980
H          1.75522       -5.57108        1.92857
H          1.40088       -6.74123       -0.97953
H          0.12257       -6.52826        0.20715
H         -0.02320       -5.77777       -1.37813
H         -0.19337       -6.61819        2.74731
H         -0.18295       -4.87383        3.10498
H         -1.67176       -5.82151        3.30651
C          5.92508        2.95155       -0.56547
C          4.74705        2.31157       -3.66265
C          2.37189        1.73594       -4.07568
C          2.93898        3.87407       -2.88583
C          6.61860       -0.28860        0.12079
C          5.48526        0.32741        2.27666
C          4.94342       -1.82495        1.10292
H          5.07199        1.27396       -3.73101
H          4.77736        2.74449       -4.66225
H          5.46869        2.84709       -3.05035
H          2.57475        0.66844       -4.15582
H          1.32956        1.85739       -3.78616
H          2.48640        2.17584       -5.06594
H          1.92345        3.96289       -2.50104
H          3.60422        4.37754       -2.18686
H          2.98522        4.40591       -3.83578
H          7.38931       -0.87613        0.61920
H          6.48522       -0.68539       -0.88503
H          6.98864        0.72996        0.03101
H          5.74587        1.37909        2.17369
H          4.57220        0.26777        2.86824
H          6.28105       -0.16248        2.83719
H          4.06799       -1.95454        1.73672
H          5.76784       -2.35717        1.57682
H          4.74324       -2.30348        0.14513
H          6.92525        3.28800       -0.83933
H          5.19990        3.71549       -0.84117
H          5.87963        2.79714        0.51138
