171
-217.83971400
P         -1.62374        0.76558        0.27332
P          1.44490       -0.23680       -0.34207
C         -0.89407        1.81650       -1.00056
C          0.51024       -0.95036       -1.70742
C         -0.32361        1.33947       -2.17451
C          0.30293        2.25450       -3.04171
C          0.31265        3.60066       -2.71729
C         -0.26531        4.05600       -1.55202
C         -0.85974        3.15533       -0.68976
C          0.61137       -2.28896       -1.99548
C         -0.11302       -2.83125       -3.03835
C         -0.94424       -2.02340       -3.78646
C         -1.06620       -0.67105       -3.51006
C         -0.30138       -0.11667       -2.46556
Cl         2.21153        1.26353        2.58440
Cl        -0.81519        0.60475        3.49936
C         -1.98228        0.17460       -4.32385
C          0.97884        1.80999       -4.29137
H         -0.24569        5.10578       -1.30895
H         -1.29417        3.49286        0.23984
H          1.26341       -2.91100       -1.40721
H         -0.03280       -3.88233       -3.26280
H          0.79358        4.29442       -3.38626
H         -1.50458       -2.44210       -4.60491
C         -3.02138       -3.44068       -0.67580
C         -3.65162       -2.35786       -1.27537
C         -3.16711       -1.08761       -0.99089
C         -2.10501       -0.91867       -0.13720
C         -1.50698       -2.00140        0.46450
C         -1.95777       -3.28970        0.20673
H         -3.38818       -4.42594       -0.89347
H         -3.62652       -0.21525       -1.42132
H         -0.69290       -1.84370        1.14917
C         -5.46392        2.77463        1.60293
C         -4.62188        2.25389        2.57873
C         -3.44028        1.65924        2.16225
C         -3.11603        1.59630        0.83215
C         -3.95652        2.11948       -0.11982
C         -5.15410        2.72012        0.24921
H         -6.38872        3.23444        1.89667
H         -2.75700        1.24490        2.88098
H         -3.66600        2.05637       -1.15479
C          3.84015       -3.59001        1.60930
C          4.04649       -3.26901        0.27394
C          3.30150       -2.22932       -0.26540
C          2.36837       -1.55829        0.48669
C          2.18068       -1.89545        1.80692
C          2.92299       -2.90832        2.39804
H          4.40843       -4.38454        2.05504
H          3.44847       -1.94633       -1.29314
H          1.45752       -1.36052        2.39205
C          4.51837        2.60983       -2.07596
C          4.25576        1.41470       -2.73445
C          3.29762        0.56930       -2.18644
C          2.65364        0.90394       -1.01997
C          2.93041        2.08662       -0.38405
C          3.86151        2.97255       -0.90612
H          5.26891        3.26228       -2.48032
H          3.03646       -0.35369       -2.67425
H          2.43583        2.30919        0.54420
Pd         0.31869        0.64173        1.55643
C         -5.48076       -1.24685       -2.65373
C         -4.87401       -2.58188       -2.17753
C         -5.95461       -3.34571       -1.38879
C         -4.45657       -3.40135       -3.41066
H         -6.35421       -1.42061       -3.28201
H         -5.79853       -0.63804       -1.80739
H         -4.76326       -0.67437       -3.24001
H         -6.23814       -2.79384       -0.49274
H         -6.84977       -3.49001       -1.99353
H         -5.60154       -4.32854       -1.07924
H         -3.70467       -2.86758       -3.98961
H         -4.03637       -4.36417       -3.12211
H         -5.31032       -3.58951       -4.06143
C         -2.02873       -5.80777        0.59436
C         -1.32529       -4.48165        0.94239
C         -1.44676       -4.25286        2.46050
C          0.15714       -4.60554        0.55298
H         -3.08428       -5.77452        0.86367
H         -1.94828       -6.02727       -0.47014
H         -1.57616       -6.63832        1.13605
H         -2.49073       -4.13047        2.74820
H         -1.04083       -5.09680        3.01751
H         -0.90958       -3.35757        2.76898
H          0.26005       -4.78620       -0.51636
H          0.70299       -3.69706        0.79773
H          0.63340       -5.43256        1.07900
C         -6.29096        3.00983        4.34701
C         -4.94838        2.30376        4.07797
C         -3.83486        3.07247        4.81399
C         -5.03197        0.86647        4.62482
H         -6.50457        3.03982        5.41541
H         -6.27273        4.03779        3.98542
H         -7.11408        2.48603        3.86132
H         -4.04783        3.14177        5.88050
H         -2.87036        2.57926        4.69904
H         -3.74159        4.08468        4.42120
H         -5.28023        0.86631        5.68596
H         -5.79814        0.29811        4.09791
H         -4.08469        0.34207        4.50438
C         -6.34557        4.79455       -0.50567
C         -6.12888        3.29646       -0.78736
C         -7.47113        2.54826       -0.69149
C         -5.58741        3.14385       -2.22297
H         -5.39943        5.33398       -0.54630
H         -7.01806        5.23637       -1.24078
H         -6.77964        4.95416        0.48061
H         -7.33050        1.48192       -0.86752
H         -7.92167        2.66790        0.29311
H         -8.17987        2.92192       -1.43033
H         -4.63864        3.66688       -2.34217
H         -5.43828        2.09467       -2.47743
H         -6.28729        3.56131       -2.94670
C          6.09790       -3.01212       -1.14353
C          5.04923       -4.01126       -0.61986
C          4.29573       -4.64114       -1.80671
C          5.77805       -5.13064        0.14746
H          6.62410       -2.53720       -0.31576
H          6.83530       -3.51240       -1.77098
H          5.63337       -2.22647       -1.73787
H          3.52719       -5.32850       -1.45339
H          3.80859       -3.88043       -2.41583
H          4.97683       -5.19710       -2.45072
H          5.07277       -5.87147        0.52375
H          6.48436       -5.64782       -0.50190
H          6.33948       -4.72722        0.98997
C          4.12924       -3.10378        4.58716
C          2.76942       -3.26841        3.88308
C          2.29299       -4.72624        4.00766
C          1.74847       -2.35347        4.58972
H          4.87915       -3.77130        4.16463
H          4.49342       -2.08188        4.48298
H          4.04720       -3.32629        5.65089
H          3.00885       -5.41606        3.56214
H          2.16415       -5.00682        5.05285
H          1.33828       -4.86322        3.50205
H          0.75772       -2.45067        4.14822
H          1.66340       -2.61117        5.64514
H          2.05067       -1.30807        4.52897
C          4.51433       -0.24944       -4.64334
C          5.07076        1.02466       -3.97692
C          6.52560        0.76017       -3.54913
C          5.03946        2.16471       -5.01307
H          5.08090       -0.49474       -5.54152
H          4.57868       -1.10618       -3.97300
H          3.47281       -0.11648       -4.93481
H          6.97252        1.65044       -3.10766
H          6.57044       -0.03767       -2.80821
H          7.13680        0.46485       -4.40177
H          5.47698        3.07937       -4.61566
H          5.60240        1.89207       -5.90565
H          4.01792        2.38625       -5.31843
C          4.67086        3.96742        1.24654
C          4.14019        4.28642       -0.16362
C          2.83220        5.09201       -0.05467
C          5.18440        5.14766       -0.89908
H          4.89518        4.88165        1.79554
H          3.94182        3.40166        1.82540
H          5.58330        3.37443        1.18912
H          2.43342        5.31110       -1.04480
H          2.07210        4.54074        0.49779
H          2.99762        6.03819        0.46006
H          4.84617        5.40001       -1.90397
H          5.35996        6.08168       -0.36545
H          6.13914        4.62764       -0.97495
H         -1.47373        0.56311       -5.20696
H          1.07880        0.72487       -4.33169
H         -2.35312        1.02260       -3.74579
H         -2.84709       -0.39695       -4.66347
H          1.98086        2.23464       -4.35421
H          0.42238        2.13245       -5.17258
