105
-153.05937456
Cl        -0.35216        1.40767        3.27116
Pd        -0.79101        1.15909        1.07266
P         -1.40648        0.78595       -1.16314
N         -1.32295       -0.95975       -1.20279
C         -0.14636       -1.71615       -1.31360
C          0.29993       -2.48596       -0.21309
C          1.40407       -3.34409       -0.35227
C          1.84976       -4.15019        0.84179
C          3.24220       -4.78210        0.68662
C          3.40314       -5.42498       -0.69477
C          3.21035       -4.38687       -1.81165
C          2.04332       -3.45774       -1.58860
C          1.59423       -2.69163       -2.65830
C          0.53070       -1.83537       -2.52634
H          0.18919       -1.26965       -3.37151
H          2.10047       -2.77491       -3.60514
H          4.12034       -3.78550       -1.91795
H          4.38236       -5.91661       -0.78303
H          4.00933       -4.00885        0.81727
H          1.82860       -3.50470        1.72867
C         -0.47977       -2.45361        1.04559
C          0.01394       -1.74873        2.17138
C         -0.71986       -1.80171        3.35842
C         -1.91615       -2.46856        3.42271
C         -2.42977       -3.13948        2.31949
C         -3.76983       -3.82112        2.45830
C         -4.11063       -4.79297        1.31618
C         -3.69583       -4.21489       -0.04046
C         -2.18652       -3.93241       -0.06694
C         -1.70181       -3.14761        1.12798
H         -1.63387       -4.87861       -0.10647
H         -4.24265       -3.28057       -0.21949
H         -5.18126       -5.04190        1.32117
H         -4.54353       -3.04669        2.52400
H         -2.48139       -2.46657        4.33937
H         -0.35505       -1.26571        4.21709
N          1.17323       -0.96665        2.12543
P          1.41141        0.29188        0.89593
C          2.61329       -0.21396       -0.33000
C          3.65265       -1.01541        0.07552
C          4.65239       -1.34917       -0.82102
C          4.61313       -0.87880       -2.12731
C          3.56883       -0.04642       -2.50670
C          2.57464        0.28836       -1.60689
H          1.76708        0.93582       -1.89811
H          3.53762        0.33760       -3.51202
C          5.68588       -1.23028       -3.09792
H          5.46931       -1.97726       -0.50943
H          3.67659       -1.37099        1.09362
C          2.20533        1.71902        1.67117
C          2.83226        1.63370        2.89262
C          3.44423        2.74874        3.43514
C          3.44162        3.95897        2.75604
C          2.83839        4.01828        1.50798
C          2.22733        2.90093        0.96929
H          1.79213        2.93776       -0.01430
H          2.85417        4.94356        0.95766
C          4.11840        5.15447        3.33051
H          3.93238        2.68431        4.39267
H          2.86577        0.69558        3.41877
H          1.37559       -0.49862        2.99739
H         -1.86575       -1.13651       -0.36638
C         -0.42542        1.66346       -2.36878
C          0.20681        2.81940       -1.97512
C          1.01499        3.49833       -2.86890
C          1.17938        3.02972       -4.16559
C          0.48238        1.89505       -4.56005
C         -0.32446        1.21695       -3.66422
H         -0.89696        0.35851       -3.97573
H          0.57448        1.54651       -5.57453
C          2.04152        3.76333       -5.13262
H          1.51988        4.39942       -2.56496
H          0.03486        3.20097       -0.98077
C         -3.12118        1.26268       -1.36253
C         -3.44063        2.58980       -1.52329
C         -4.76560        2.96611       -1.65214
C         -5.77663        2.01469       -1.62597
C         -5.43324        0.68021       -1.45562
C         -4.10767        0.30663       -1.32751
H         -3.83944       -0.72918       -1.20242
H         -6.21037       -0.06403       -1.41939
C         -7.20478        2.42271       -1.73212
H         -5.02270        4.00517       -1.76763
H         -2.65327        3.32675       -1.53955
Cl        -2.91690        1.75453        1.51477
H          3.08013       -4.89027       -2.77823
H          3.42814       -5.51745        1.48210
H          2.66113       -6.22518       -0.80970
H          1.10543       -4.93269        1.03096
H         -3.98485       -4.88852       -0.85954
H         -1.92024       -3.40324       -0.98939
H         -3.79954       -4.34553        3.42195
H         -3.58782       -5.74396        1.47869
H          6.22600       -2.12491       -2.78493
H          5.26902       -1.42484       -4.08719
H          6.40705       -0.41701       -3.18963
H          4.08675        5.13846        4.42081
H          5.16468        5.19201        3.02421
H          3.63710        6.07585        2.99966
H          2.85845        4.27502       -4.62179
H          2.48296        3.08198       -5.86137
H          1.46354        4.51119       -5.67718
H         -7.62142        2.63109       -0.74579
H         -7.31341        3.32175       -2.34038
H         -7.80575        1.63729       -2.19256
