171
-217.84033794
P         -1.69352        0.70824        0.18818
P          1.53776       -0.21409       -0.22210
C         -0.84995        1.88428       -0.89138
C          0.72513       -0.78837       -1.72253
C         -0.13084        1.52574       -2.02591
C          0.57645        2.52448       -2.72143
C          0.52212        3.83333       -2.27288
C         -0.19661        4.17032       -1.14629
C         -0.87551        3.18725       -0.45256
C          0.88172       -2.08810       -2.13606
C          0.25691       -2.53142       -3.28485
C         -0.52946       -1.66356       -4.01386
C         -0.70618       -0.34921       -3.61216
C         -0.04558        0.10581       -2.45487
Cl         1.93579        0.98619        2.84445
Cl        -1.08007        0.28201        3.45345
C         -1.56614        0.56537       -4.41247
C          1.40059        2.20652       -3.91993
H         -0.22081        5.19124       -0.80177
H         -1.42174        3.43063        0.44696
H          1.50122       -2.75640       -1.56326
H          0.38111       -3.55207       -3.60804
H          1.06345        4.59166       -2.81316
H         -1.00935       -2.00369       -4.91557
C         -2.88805       -3.39481       -1.32427
C         -1.92029       -3.32056       -0.32894
C         -1.53128       -2.05946        0.10380
C         -2.09543       -0.92868       -0.43969
C         -3.06378       -1.02379       -1.40847
C         -3.48439       -2.26487       -1.86936
H         -3.20587       -4.35748       -1.67773
H         -0.79368       -1.96246        0.88044
H         -3.50092       -0.11860       -1.79148
C         -5.64484        2.54920        1.42140
C         -4.85437        1.96422        2.40401
C         -3.63894        1.42020        2.01633
C         -3.23437        1.46712        0.70775
C         -4.02299        2.05497       -0.25061
C         -5.25167        2.60813        0.08958
H         -6.59479        2.97027        1.69204
H         -2.99134        0.96095        2.74118
H         -3.66706        2.08138       -1.26653
C          3.75556       -3.73620        1.63407
C          2.75607       -3.12984        2.38327
C          2.07528       -2.06089        1.81726
C          2.39771       -1.60114        0.56191
C          3.40712       -2.20209       -0.14983
C          4.09865       -3.29041        0.36423
H          4.27881       -4.57180        2.05937
H          1.29287       -1.57842        2.37133
H          3.65603       -1.82709       -1.12696
C          4.58170        2.92601       -1.39547
C          3.75173        3.17697       -0.31021
C          2.84171        2.19293        0.05135
C          2.75304        1.02660       -0.66511
C          3.56204        0.80664       -1.75315
C          4.50589        1.75276       -2.13563
H          5.31741        3.66168       -1.66326
H          2.20212        2.32322        0.90512
H          3.43557       -0.10086       -2.31709
Pd         0.15589        0.45742        1.57461
C          0.18685       -4.62431        0.10098
C         -1.33117       -4.57192        0.34117
C         -1.95378       -5.86638       -0.21658
C         -1.61558       -4.50936        1.85349
H          0.40528       -4.68984       -0.96419
H          0.67613       -3.73563        0.49384
H          0.63152       -5.49226        0.58719
H         -1.53275       -6.74147        0.27841
H         -3.03172       -5.88392       -0.05679
H         -1.75897       -5.96726       -1.28414
H         -1.24380       -5.40016        2.35903
H         -1.14032       -3.64221        2.30919
H         -2.68690       -4.43865        2.04030
C         -4.04734       -3.09318       -4.17029
C         -4.60542       -2.41265       -2.90857
C         -5.19626       -1.04497       -3.30544
C         -5.73872       -3.27078       -2.31489
H         -3.63272       -4.07403       -3.94033
H         -4.82767       -3.22626       -4.91940
H         -3.25630       -2.49050       -4.61352
H         -4.43919       -0.40352       -3.75456
H         -5.99811       -1.16614       -4.03358
H         -5.61243       -0.53255       -2.43818
H         -5.39267       -4.27469       -2.07232
H         -6.12403       -2.81904       -1.40093
H         -6.56539       -3.36578       -3.01877
C         -6.64279        2.55307        4.11833
C         -5.27084        1.89399        3.87995
C         -4.22076        2.62480        4.73773
C         -5.35425        0.41818        4.31225
H         -6.92095        2.49684        5.17070
H         -6.62611        3.60602        3.83761
H         -7.42308        2.05358        3.54437
H         -3.24015        2.15949        4.64484
H         -4.12760        3.66550        4.42815
H         -4.49799        2.60886        5.79153
H         -5.66560        0.33334        5.35317
H         -6.07434       -0.12261        3.69850
H         -4.38976       -0.07830        4.21178
C         -6.45140        4.71276       -0.56442
C         -6.17324        3.25013       -0.95708
C         -7.49638        2.46504       -1.01522
C         -5.53563        3.23596       -2.36086
H         -6.95485        4.77642        0.39946
H         -5.52064        5.27537       -0.49389
H         -7.08590        5.20109       -1.30388
H         -8.16745        2.88585       -1.76382
H         -7.31365        1.42207       -1.27355
H         -8.01152        2.48633       -0.05555
H         -4.59500        3.78646       -2.36997
H         -5.34305        2.21671       -2.69510
H         -6.19753        3.70147       -3.09099
C          3.71809       -3.54003        4.66174
C          2.44501       -3.63355        3.80025
C          1.97202       -5.09619        3.72905
C          1.34329       -2.79186        4.47586
H          4.08109       -2.51309        4.69891
H          3.52289       -3.86646        5.68307
H          4.51631       -4.16304        4.26021
H          1.07945       -5.18188        3.11102
H          2.73880       -5.73989        3.29954
H          1.73266       -5.47775        4.72145
H          0.40858       -2.84398        3.91929
H          1.14457       -3.15262        5.48477
H          1.63989       -1.74590        4.55231
C          6.29059       -2.90964       -0.79061
C          5.19490       -3.94810       -0.48501
C          4.57700       -4.45310       -1.80274
C          5.84032       -5.14298        0.24224
H          7.09235       -3.35034       -1.38281
H          5.89041       -2.06425       -1.34881
H          6.72388       -2.52462        0.13224
H          5.32569       -4.94938       -2.41990
H          3.77620       -5.16529       -1.60404
H          4.15751       -3.63286       -2.38428
H          6.61340       -5.59978       -0.37558
H          6.30743       -4.82849        1.17534
H          5.10068       -5.91139        0.46658
C          2.81305        4.59581        1.58113
C          3.86470        4.50092        0.45751
C          3.64168        5.67411       -0.51467
C          5.26542        4.60341        1.08677
H          2.89016        5.54876        2.10417
H          1.80275        4.51994        1.17951
H          2.95188        3.80450        2.31742
H          3.69760        6.62921        0.00726
H          4.39049        5.68268       -1.30568
H          2.66061        5.60317       -0.98333
H          6.04336        4.58819        0.32428
H          5.37168        5.52759        1.65454
H          5.44399        3.76821        1.76376
C          5.10293        0.24651       -4.09793
C          5.49004        1.49969       -3.28734
C          6.89572        1.29047       -2.69686
C          5.50823        2.70572       -4.24641
H          5.78453        0.10245       -4.93613
H          5.14840       -0.65185       -3.48293
H          4.09490        0.33779       -4.50198
H          7.22291        2.17047       -2.14381
H          6.90311        0.44354       -2.01094
H          7.62554        1.09610       -3.48259
H          4.51742        2.88913       -4.65976
H          5.83596        3.61387       -3.74268
H          6.18912        2.52816       -5.07876
H         -2.03139        1.32239       -3.77901
H          0.92813        2.58019       -4.82944
H         -2.36512        0.01704       -4.91332
H         -0.98345        1.07747       -5.17906
H          1.55044        1.13216       -4.03223
H          2.38489        2.66853       -3.83982
