58
-89.86301558
P          1.65395        0.20975        0.78361
C          2.00925        1.94244        0.44565
C          2.27130        2.82900        1.46643
C          2.51389        4.15941        1.17558
C          2.49894        4.59328       -0.13530
C          2.24997        3.69918       -1.15716
C          2.00804        2.37097       -0.86188
H          1.82757        1.65510       -1.64691
H          2.29281        2.48199        2.48638
C          3.09630       -0.79925        0.43385
C          4.33507       -0.20553        0.35214
C          5.45069       -0.97686        0.08011
C          5.31557       -2.33823       -0.10840
C          4.07007       -2.92912       -0.02586
C          2.95629       -2.15530        0.24718
H          1.97671       -2.60262        0.30355
H          4.42285        0.85941        0.49637
C          1.22902       -0.05037        2.56045
C          0.25420       -1.19726        2.78764
C         -1.20220       -0.80176        2.60389
P         -1.70272       -0.50630        0.85059
C         -3.03859       -1.65522        0.49269
C         -4.28409       -1.43174        1.03557
C         -5.31169       -2.32581        0.79288
C         -5.08144       -3.44438        0.01666
C         -3.82618       -3.67446       -0.51053
C         -2.80091       -2.77903       -0.26505
H         -1.81560       -2.94725       -0.66976
H         -4.44514       -0.56424        1.65610
C         -2.17133        1.21638        0.61545
C         -3.37088        1.57314        0.04306
C         -3.66652        2.90949       -0.15628
C         -2.75358        3.87999        0.20824
C         -1.54337        3.51765        0.76509
C         -1.25421        2.18098        0.96614
H         -0.29457        1.88230        1.34977
H         -4.06266        0.80707       -0.26494
Pd         0.00732       -0.42219       -0.72274
Cl         1.60467       -0.51387       -2.30738
Cl        -1.58248       -0.86959       -2.25102
H         -1.87048       -1.58232        2.97722
H         -1.43417        0.10179        3.17130
H          0.49975       -2.03042        2.11580
H          0.39167       -1.59530        3.80524
H          2.18373       -0.23058        3.06177
H          0.82940        0.87535        2.97678
H          2.71490        4.85649        1.97248
H          2.24491        4.03354       -2.18155
H          6.42193       -0.51493        0.01258
H          3.96407       -3.99068       -0.17790
H         -6.28903       -2.15006        1.21146
H         -3.64460       -4.54855       -1.11407
H         -4.60534        3.19199       -0.60363
H         -0.81802        4.27025        1.02702
H          2.68694        5.63022       -0.36145
H          6.18336       -2.94033       -0.32318
H         -5.88157       -4.14058       -0.17523
H         -2.98154        4.92107        0.04741
