171
-217.84715246
P         -1.56102        0.42309       -0.32135
P          1.59034       -0.42746       -0.37509
C         -0.86197        1.37843       -1.67199
C          0.86128       -1.34793       -1.73487
C         -0.10275        0.76561       -2.66206
C          0.50414        1.57046       -3.64549
C          0.29475        2.93930       -3.62421
C         -0.48592        3.52417       -2.64986
C         -1.05488        2.73825       -1.66696
C          1.06220       -2.70606       -1.77537
C          0.46731       -3.46763       -2.76201
C         -0.34853       -2.86091       -3.69310
C         -0.56605       -1.49342       -3.66897
C          0.06851       -0.71233       -2.68364
Cl         1.62289        0.27636        2.86631
Cl        -1.52750       -0.43278        2.87701
C         -1.45829       -0.87874       -4.69014
C          1.35447        0.97730       -4.71415
H         -0.64840        4.58955       -2.65232
H         -1.65311        3.18725       -0.89040
H          1.68723       -3.17354       -1.03167
H          0.63458       -4.53169       -2.79884
H          0.75348        3.54924       -4.38414
H         -0.82927       -3.45234       -4.45407
C         -3.89758       -3.25707       -1.51906
C         -2.90819       -3.37642       -0.55020
C         -2.17696       -2.24059       -0.23132
C         -2.44192       -1.04347       -0.84820
C         -3.42345       -0.94048       -1.80261
C         -4.17636       -2.05381       -2.15685
H         -4.48369       -4.11859       -1.77732
H         -1.40112       -2.28407        0.51315
H         -3.60277        0.01932       -2.25667
C         -4.31168        2.99041        2.21741
C         -4.86653        2.02855        1.38149
C         -4.00103        1.26174        0.61473
C         -2.64461        1.46019        0.67532
C         -2.11296        2.41663        1.50488
C         -2.93956        3.19258        2.30766
H         -4.95869        3.59839        2.82117
H         -4.39048        0.49276       -0.02882
H         -1.04438        2.53989        1.53525
C          4.36074       -3.02163        2.10930
C          2.99405       -3.27324        2.14784
C          2.16800       -2.48908        1.35454
C          2.69096       -1.48546        0.57757
C          4.04195       -1.24509        0.55762
C          4.90854       -2.01708        1.32052
H          5.02149       -3.61101        2.71671
H          1.10229       -2.64517        1.36418
H          4.41299       -0.43721       -0.04717
C          3.84320        3.33043       -1.49709
C          2.88418        3.39423       -0.49345
C          2.18528        2.23351       -0.19304
C          2.44468        1.06685       -0.86792
C          3.39692        1.01784       -1.85583
C          4.12021        2.15738       -2.18948
H          4.40657        4.21141       -1.74031
H          1.44258        2.23469        0.58611
H          3.57676        0.07954       -2.35236
Pd         0.03214       -0.03246        1.31231
C         -2.45174       -4.48124        1.66791
C         -2.58929       -4.70630        0.14813
C         -1.26834       -5.25525       -0.41376
C         -3.70048       -5.74877       -0.08288
H         -3.35633       -4.02861        2.07327
H         -2.28422       -5.42451        2.18749
H         -1.61482       -3.82603        1.90411
H         -0.98916       -6.18750        0.07684
H         -1.35676       -5.44823       -1.48258
H         -0.45998       -4.53978       -0.27009
H         -3.49197       -6.66480        0.46980
H         -4.66596       -5.36987        0.25212
H         -3.77996       -6.01575       -1.13631
C         -6.65969       -2.20548       -2.40452
C         -5.33774       -1.96978       -3.15765
C         -5.16461       -3.04314       -4.24918
C         -5.40360       -0.58882       -3.83946
H         -6.79460       -1.45976       -1.62112
H         -7.51174       -2.14298       -3.08118
H         -6.67527       -3.18870       -1.93533
H         -4.21201       -2.92287       -4.76357
H         -5.19292       -4.04772       -3.82945
H         -5.95912       -2.97376       -4.99201
H         -6.21416       -0.55548       -4.56732
H         -5.58538        0.20152       -3.11172
H         -4.47670       -0.36550       -4.36634
C         -7.17579        2.71377        2.20579
C         -6.37664        1.76870        1.28861
C         -6.66511        0.31548        1.71041
C         -6.84103        1.98644       -0.16365
H         -7.01046        3.75624        1.93429
H         -8.24495        2.51758        2.12561
H         -6.89348        2.57855        3.24970
H         -7.73333        0.10273        1.67354
H         -6.16138       -0.39479        1.05560
H         -6.31860        0.13465        2.72767
H         -6.62184        3.00297       -0.48970
H         -6.34000        1.30120       -0.84623
H         -7.91462        1.82468       -0.25871
C         -0.83933        4.18773        3.34464
C         -2.37858        4.23909        3.28116
C         -2.92328        3.96745        4.69643
C         -2.80713        5.64136        2.81571
H         -0.45658        4.90493        4.07051
H         -0.49219        3.19794        3.64114
H         -0.40023        4.43430        2.37964
H         -4.00773        4.06108        4.73238
H         -2.66239        2.95993        5.01993
H         -2.50645        4.67169        5.41620
H         -3.89250        5.73407        2.79428
H         -2.41755        6.41035        3.48257
H         -2.43415        5.84381        1.81174
C          3.43118       -5.09315        3.87412
C          2.36530       -4.33603        3.05963
C          1.59214       -5.35239        2.20065
C          1.39738       -3.64500        4.03961
H          4.13398       -5.60683        3.21838
H          3.98994       -4.41299        4.51667
H          2.96747       -5.84405        4.51374
H          0.78548       -4.86840        1.65355
H          2.25244       -5.82681        1.47495
H          1.15158       -6.13347        2.82002
H          0.94490       -4.36794        4.71791
H          1.92261       -2.90081        4.63774
H          0.59287       -3.13575        3.51034
C          7.15879       -3.05123        0.91316
C          6.42305       -1.76591        1.33458
C          6.85407       -1.36038        2.75562
C          6.82033       -0.63713        0.36194
H          8.23702       -2.89379        0.89105
H          6.95660       -3.86927        1.60344
H          6.84322       -3.36630       -0.08131
H          6.32486       -0.46301        3.07574
H          6.63806       -2.14972        3.47468
H          7.92365       -1.15500        2.79582
H          6.34830        0.30518        0.63967
H          7.89873       -0.47953        0.37128
H          6.53114       -0.88107       -0.66019
C          3.55463        5.81483       -0.07397
C          2.58261        4.67743        0.29336
C          2.71657        4.39426        1.80250
C          1.14897        5.13540       -0.02457
H          3.34198        6.70884        0.51217
H          4.58688        5.52651        0.12405
H          3.46580        6.08385       -1.12630
H          3.72031        4.04243        2.03959
H          2.52725        5.29448        2.38686
H          2.01161        3.63204        2.13092
H          0.88233        6.02107        0.55185
H          1.05161        5.37924       -1.08184
H          0.42718        4.35285        0.20425
C          5.33850        0.77146       -3.94314
C          5.24171        2.13857       -3.23802
C          6.58422        2.42200       -2.53927
C          4.97549        3.22002       -4.30227
H          5.57537       -0.02086       -3.23333
H          4.40380        0.51906       -4.44248
H          6.12448        0.78073       -4.69817
H          6.57994        3.39944       -2.05809
H          6.78489        1.67375       -1.77291
H          7.40766        2.40374       -3.25299
H          4.01023        3.06348       -4.78176
H          4.97211        4.21732       -3.86443
H          5.74265        3.20133       -5.07619
H         -1.79036        0.11437       -4.38460
H          0.79859        0.88423       -5.64799
H         -2.34762       -1.48998       -4.84533
H         -0.94722       -0.78541       -5.64923
H          1.71441       -0.01348       -4.43352
H          2.22685        1.60163       -4.90766
