58
-89.86489394
P          1.81100       -0.46353        0.64545
C          1.55060        1.31516        0.76287
C          1.43171        1.96093        1.97190
C          1.22271        3.32734        2.00360
C          1.14350        4.04132        0.82464
C          1.28115        3.39353       -0.38621
C          1.49003        2.02680       -0.41382
H          1.60253        1.50488       -1.35148
H          1.51943        1.40511        2.89024
C          3.57938       -0.69801        0.39155
C          4.43066       -0.21283        1.35943
C          5.79792       -0.37997        1.22401
C          6.30487       -1.03281        0.11802
C          5.44936       -1.51364       -0.85290
C          4.08554       -1.34213       -0.71320
H          3.41009       -1.69010       -1.47461
H          4.02193        0.29927        2.21649
C          1.39690       -1.35855        2.20917
C         -0.07493       -1.66053        2.45424
C         -0.98160       -0.43604        2.42069
P         -1.57841       -0.10243        0.71180
C         -3.06716       -1.07348        0.45033
C         -4.29015       -0.44497        0.51439
C         -5.45013       -1.17298        0.31883
C         -5.37569       -2.52737        0.06049
C         -4.14668       -3.15381       -0.00276
C         -2.98868       -2.42327        0.19422
H         -2.02380       -2.89970        0.13140
H         -4.33131        0.61420        0.71275
C         -1.90790        1.63783        0.41590
C         -2.08598        2.52229        1.45544
C         -2.34179        3.85453        1.18480
C         -2.42313        4.28966       -0.12357
C         -2.25765        3.39587       -1.16296
C         -2.00362        2.06513       -0.88836
H         -1.88821        1.34545       -1.68301
H         -2.02551        2.17128        2.47265
Pd         0.01555       -0.79225       -0.83137
Cl         1.52027       -1.38273       -2.37921
Cl        -1.68944       -0.91772       -2.29789
H         -1.87960       -0.57568        3.02821
H         -0.47095        0.44446        2.80926
H         -0.43017       -2.38698        1.71100
H         -0.17788       -2.17371        3.42327
H          1.97946       -2.28308        2.18419
H          1.80710       -0.76452        3.02723
H          1.12159        3.83459        2.94902
H          1.22060        3.94857       -1.30782
H          6.46469       -0.00053        1.98079
H          5.84331       -2.01685       -1.72066
H         -6.40863       -0.68272        0.36550
H         -4.08822       -4.20965       -0.21035
H         -2.47445        4.55234        1.99518
H         -2.32700        3.73216       -2.18432
H          0.97413        5.10543        0.84955
H          7.36934       -1.16378        0.01071
H         -6.27807       -3.09588       -0.09519
H         -2.61907        5.32844       -0.33374
