59
-75.80792093
Cl         1.77856        0.31697        2.32044
P          1.61000       -0.00486       -0.89053
P         -1.54651       -0.05703       -0.76220
C          0.61774        0.08575       -2.44531
H          0.40632        1.13553       -2.66011
H          1.22096       -0.29881       -3.27360
C         -0.66045       -0.67999       -2.26154
H         -0.45897       -1.74440       -2.12606
H         -1.32668       -0.58606       -3.12470
C          2.79557       -1.43605       -0.92527
H          2.76596       -1.83261       -1.94736
C          2.82590        1.38805       -0.70968
H          2.78876        1.68024        0.34709
C         -3.05166       -1.09177       -0.42658
H         -3.41586       -0.77946        0.55990
C         -2.48945        1.47435       -1.22827
H         -1.87063        2.06756       -1.91192
C          4.16026       -0.78249       -0.64030
H          4.38096       -0.88263        0.43137
H          4.96320       -1.32869       -1.15813
C          4.17293        0.71863       -1.02596
H          4.37595        0.82093       -2.10101
H          4.99299        1.24929       -0.51835
C         -4.01464       -0.59778       -1.52180
H         -3.91766       -1.26262       -2.39250
H         -5.05790       -0.71177       -1.18936
C         -3.72531        0.88046       -1.94488
H         -4.60144        1.51021       -1.73301
H         -3.59051        0.93856       -3.03569
C          2.43866       -2.53187        0.07426
H          2.30152       -2.07607        1.06367
H          3.29798       -3.20796        0.18499
C          2.51809        2.59416       -1.58943
H          3.38230        3.27296       -1.58238
H          2.42513        2.26070       -2.63097
C         -2.80290       -2.59816       -0.42292
H         -3.75800       -3.11865       -0.57935
H         -2.18837       -2.86416       -1.29145
C         -2.87345        2.30018        0.00104
H         -3.68699        2.98743       -0.27077
H         -3.30755        1.62599        0.75093
C          1.20744       -3.32745       -0.32080
H          1.34266       -3.81307       -1.28911
H          0.33656       -2.67976       -0.40606
H          0.96897       -4.10537        0.40813
C          1.27096        3.34161       -1.15043
H          1.38186        3.73105       -0.13652
H          0.40170        2.68433       -1.14561
H          1.04356        4.18577       -1.80540
C         -2.16115       -3.08756        0.86702
H         -2.82019       -2.92163        1.72137
H         -1.23610       -2.55256        1.08160
H         -1.92873       -4.15432        0.83359
C         -1.72880        3.09391        0.60989
H         -1.33474        3.82420       -0.09880
H         -2.04257        3.64340        1.50037
H         -0.90408        2.44702        0.90713
Cl        -1.50412       -0.13533        2.42771
Pd         0.10366       -0.00550        0.87027
