105
-153.06694331
Cl        -0.02572        1.89018        3.08889
Pd        -0.46701        1.29069        0.96034
P         -1.11629        0.49488       -1.15807
N         -0.73886       -1.02048       -1.97293
C          0.18648       -2.00499       -1.62852
C          0.32644       -2.48446       -0.30174
C          1.29141       -3.47508       -0.02494
C          1.41448       -4.00051        1.38576
C          2.24080       -5.28908        1.51958
C          3.51161       -5.21556        0.66848
C          3.15822       -5.02096       -0.81333
C          2.09352       -3.97992       -1.05236
C          1.90089       -3.52881       -2.35205
C          0.96394       -2.57107       -2.63795
H          0.83810       -2.22022       -3.64739
H          2.50966       -3.93712       -3.14098
H          4.05447       -4.74764       -1.38501
H          4.12877       -4.37481        1.00958
H          2.48821       -5.48765        2.57198
H          1.86128       -3.21546        2.00651
C         -0.66918       -2.12574        0.73677
C         -0.24058       -1.54173        1.95996
C         -1.17001       -1.40634        2.99549
C         -2.47086       -1.80614        2.83393
C         -2.91159       -2.36811        1.64197
C         -4.34968       -2.82160        1.56116
C         -4.81676       -3.19722        0.14573
C         -3.74011       -4.00236       -0.58619
C         -2.44040       -3.19232       -0.69914
C         -2.00976       -2.53148        0.58811
H         -1.62814       -3.83606       -1.05914
H         -4.09407       -4.31638       -1.57837
H         -5.03356       -2.28522       -0.42387
H         -4.99175       -2.03512        1.97714
H         -3.17179       -1.68754        3.64287
H         -0.85452       -0.95334        3.91895
N          1.05777       -1.04141        2.13829
P          1.60915        0.18550        0.99871
C          2.62175       -0.35720       -0.36486
C          2.40733        0.20007       -1.60057
C          3.22594       -0.14767       -2.65928
C          4.27358       -1.04085       -2.47607
C          4.48094       -1.58031       -1.21290
C          3.65993       -1.23173       -0.15540
H          3.82047       -1.63699        0.83103
H          5.28648       -2.27866       -1.06338
C          5.12891       -1.45023       -3.62370
H          3.05112        0.26937       -3.63618
H          1.59348        0.89291       -1.73065
C          2.53193        1.49934        1.80351
C          3.24913        1.24325        2.94721
C          3.95977        2.26349        3.55331
C          3.96390        3.54162        3.01058
C          3.23464        3.77807        1.85307
C          2.52560        2.75682        1.24715
H          1.96176        2.93653        0.34478
H          3.22182        4.76840        1.43096
C          4.70137        4.64850        3.68022
H          4.51449        2.07268        4.45608
H          3.25563        0.24778        3.36060
H          1.21840       -0.61580        3.04204
H         -1.01255       -0.92878       -2.94314
C         -0.61546        1.86360       -2.21538
C         -0.85937        3.15762       -1.82200
C         -0.45910        4.21290       -2.61878
C          0.19514        3.98045       -3.82045
C          0.41902        2.66812       -4.21334
C          0.01459        1.61565       -3.41287
H          0.20541        0.59960       -3.71450
H          0.91412        2.47549       -5.14981
C          0.60962        5.11554       -4.69068
H         -0.65353        5.22614       -2.31102
H         -1.36863        3.33590       -0.88989
C         -2.91128        0.53634       -1.09069
C         -3.59464        0.80901       -2.25202
C         -4.97800        0.83801       -2.24730
C         -5.68534        0.59224       -1.07844
C         -4.97700        0.32806        0.08506
C         -3.59537        0.28562        0.07342
H         -3.04366        0.07374        0.97491
H         -5.51508        0.15999        1.00212
C         -7.17298        0.65040       -1.06061
H         -5.51656        1.05774       -3.15323
H         -3.04252        1.00228       -3.15853
Cl        -2.27398        2.63987        0.99980
H          2.81751       -5.97200       -1.23980
H          1.63582       -6.14445        1.19356
H          4.13020       -6.11303        0.81072
H          0.40735       -4.15796        1.79199
H         -3.54327       -4.93073       -0.03546
H         -2.56085       -2.41455       -1.46190
H         -4.47693       -3.68227        2.22869
H         -5.76412       -3.75357        0.18030
H          6.13660       -1.70521       -3.29265
H          4.70907       -2.32238       -4.12682
H          5.21458       -0.64720       -4.35709
H          4.05396        5.17426        4.38329
H          5.56255        4.27085        4.23320
H          5.06779        5.37401        2.95258
H          1.48646        4.85611       -5.28562
H         -0.19296        5.39116       -5.37611
H          0.86187        5.99500       -4.09652
H         -7.58898        0.41934       -2.04224
H         -7.58527       -0.06693       -0.34948
H         -7.51770        1.64488       -0.77422
