111
-148.55715327
P         -2.64542        1.92131        0.55753
P          0.15166        0.45572        0.49611
C         -1.75006        1.63243        2.10807
C         -0.50590        1.04071        2.06914
C         -3.56440        3.52704        0.57645
C         -2.84819        4.58739       -0.23112
C         -2.30259        1.99208        3.32072
H         -3.28364        2.43696        3.34886
C         -1.60025        1.76444        4.49178
H         -2.03069        2.04538        5.43912
C         -0.35075        1.17578        4.44883
H          0.19409        0.99602        5.36097
C          0.19650        0.80768        3.23287
H          1.16238        0.32996        3.18151
Pd        -1.10835        1.53604       -1.11721
Cl        -2.58949        2.31747       -2.60951
Cl         0.47757        1.09032       -2.64455
C         -4.95015        3.12882        0.03564
C         -4.04123        0.74267        0.25759
H         -2.74625        4.27953       -1.27254
H         -3.39355        5.53396       -0.21998
H         -1.84293        4.76959        0.15628
H         -4.95752        3.27309       -1.05365
H         -5.72495        3.80449        0.42902
H         -3.91670        0.38181       -0.77230
C         -5.28550        1.64516        0.36260
C         -4.01567       -0.41043        1.23742
H         -3.64016        3.83118        1.62806
H         -5.68577        1.57753        1.38354
H         -6.08619        1.27041       -0.29298
H         -4.07071       -0.04690        2.26518
H         -4.85689       -1.08913        1.07860
H         -3.09442       -0.98833        1.14348
C         -1.39531       -3.76683       -0.20878
C         -0.94563       -2.98553       -1.30369
C         -0.47990       -1.70870       -1.04658
C         -0.39569       -1.22905        0.23300
C         -0.71948       -2.02077        1.30287
C         -1.18407       -3.31208        1.11851
O         -2.09588       -4.97987       -0.44228
C         -1.00432       -3.47623       -2.75781
H         -0.19040       -1.05259       -1.84884
H         -0.62213       -1.60710        2.29117
C         -1.48557       -4.17804        2.35117
C          4.68186        0.66557        0.13059
C          4.05865       -0.53444        0.55865
C          2.67691       -0.55882        0.64608
C          1.93203        0.56406        0.39681
C          2.53452        1.75471        0.08794
C          3.91284        1.84849       -0.01887
O          6.06719        0.67305       -0.18283
C          4.84826       -1.81080        0.88871
H          2.15701       -1.46760        0.89610
H          1.90668        2.61126       -0.08808
C          4.54589        3.21237       -0.33612
C          0.13074       -2.83988       -3.59262
C         -0.82004       -5.00225       -2.83820
C         -2.35227       -3.07019       -3.37309
C         -0.53312       -3.81656        3.51389
C         -2.93200       -3.93020        2.80577
C         -1.27303       -5.67203        2.04663
C         -3.50517       -4.81946       -0.54689
H          1.09751       -2.99562       -3.11460
H          0.17378       -3.28197       -4.58767
H         -0.01703       -1.76926       -3.72568
H         -0.79985       -5.34053       -3.87387
H          0.11480       -5.30108       -2.36516
H         -1.62966       -5.52673       -2.33696
H         -3.18314       -3.51273       -2.82867
H         -2.47725       -1.98783       -3.34570
H         -2.42032       -3.39183       -4.41193
H         -0.65569       -4.51135        4.34447
H          0.50674       -3.86095        3.19083
H         -0.72936       -2.81803        3.90158
H         -3.07987       -2.88273        3.06741
H         -3.64062       -4.17795        2.01895
H         -3.17503       -4.53317        3.68028
H         -1.42267       -6.27919        2.93906
H         -1.96758       -6.02544        1.28872
H         -0.26190       -5.84890        1.68145
H         -3.77883       -3.77018       -0.42844
H         -3.84232       -5.17476       -1.52051
H         -3.99934       -5.41275        0.22227
C          6.35579        0.35721       -1.53917
C          4.10384       -2.65365        1.94997
C          5.00290       -2.65568       -0.38509
C          6.23106       -1.47247        1.47443
C          5.94365        3.33842        0.29683
C          4.63480        3.38657       -1.85993
C          3.68709        4.36057        0.24114
H          4.71942       -3.48976        2.28104
H          3.86125       -2.05001        2.82420
H          3.17986       -3.07469        1.55620
H          5.54820       -3.57640       -0.17929
H          4.02719       -2.92407       -0.78972
H          5.54188       -2.11140       -1.15670
H          6.12999       -0.83883        2.35491
H          6.76492       -2.37650        1.76634
H          6.84947       -0.94416        0.75319
H          5.89389        3.17294        1.37252
H          6.63597        2.61159       -0.12031
H          6.36375        4.32911        0.12498
H          5.06550        4.35356       -2.11838
H          5.25171        2.61273       -2.31010
H          3.64529        3.32503       -2.31239
H          4.19636        5.31765        0.13037
H          3.49463        4.20486        1.30236
H          2.73096        4.44693       -0.27280
H          6.99445       -0.52488       -1.58170
H          5.43356        0.16626       -2.08947
H          6.89062        1.18629       -2.00216
