87
-129.18075751
P         -1.72259       -0.46808        0.04285
P          1.51777        0.45863       -0.07812
C         -1.53932        0.84497       -1.19148
C          1.32955       -0.58825       -1.52585
C         -0.58535        0.85001       -2.20813
C         -0.44824        2.00313       -3.00497
C         -1.28100        3.08611       -2.78430
C         -2.22858        3.06020       -1.78531
C         -2.34607        1.93994       -0.98631
C          2.20515       -1.62548       -1.73351
C          2.08363       -2.41876       -2.85729
C          1.08089       -2.16391       -3.76925
C          0.18350       -1.12666       -3.57528
C          0.31358       -0.31279       -2.43202
Cl         1.12568        1.52202        2.94331
Cl        -1.35482       -0.54607        3.26293
H         -2.86506        3.91368       -1.61834
H         -3.06751        1.92298       -0.18534
H          2.99299       -1.80892       -1.02200
H          2.76994       -3.23346       -3.02033
H         -1.17349        3.96185       -3.40173
H          0.98512       -2.77827       -4.64833
C         -0.44632       -4.69758       -1.02322
C         -1.22212       -3.98521       -1.92744
C         -1.60859       -2.69112       -1.59665
C         -1.23184       -2.13879       -0.39529
C         -0.50059       -2.86883        0.51345
C         -0.09309       -4.14952        0.19398
H         -0.12926       -5.69441       -1.27845
C         -1.60120       -4.58595       -3.23519
H         -2.19598       -2.10910       -2.28672
H         -0.29176       -2.44790        1.48401
H          0.48871       -4.72202        0.89772
C         -5.96138       -0.44257        1.69884
C         -5.60773       -1.34148        0.71203
C         -4.31554       -1.35298        0.22069
C         -3.38887       -0.46632        0.71797
C         -3.74045        0.43257        1.69823
C         -5.03141        0.45095        2.21203
H         -6.96779       -0.42961        2.08132
H         -6.33747       -2.03338        0.32449
H         -4.02436       -2.04994       -0.54845
H         -3.00333        1.11810        2.08243
C         -5.40844        1.43196        3.26576
C          4.86147       -1.15971        2.55793
C          4.95102        0.12165        2.05040
C          3.94482        0.61502        1.24150
C          2.85892       -0.17522        0.94736
C          2.76624       -1.45063        1.45425
C          3.77167       -1.96679        2.26172
H          5.63974       -1.54275        3.19579
H          5.80088        0.73955        2.28984
H          3.99538        1.61683        0.84738
H          1.90665       -2.05478        1.21929
C          3.65075       -3.33696        2.82960
C          2.39895        4.70492       -1.42282
C          1.46546        4.48685       -0.42864
C          1.20487        3.19970        0.00122
C          1.87161        2.14407       -0.57430
C          2.80643        2.35633       -1.56064
C          3.09088        3.64632       -1.99515
H          2.59986        5.70635       -1.76354
H          0.94044        5.31818        0.01245
H          0.48966        3.01347        0.78570
H          3.31090        1.51310       -2.00358
C          4.08078        3.88220       -3.08107
Pd        -0.12186        0.25853        1.57191
C          0.57759        2.09089       -4.08166
C         -0.89123       -0.89131       -4.57881
H          1.07401        3.06201       -4.06491
H          1.34790        1.32799       -3.96509
H          0.12220        1.96492       -5.06458
H         -0.48757       -0.42520       -5.47840
H         -1.36305       -1.83001       -4.87225
H         -1.67190       -0.24077       -4.18280
H         -1.93821       -5.61577       -3.10851
H         -2.41096       -4.02815       -3.70761
H         -0.75234       -4.59159       -3.92011
H         -4.57848        1.60539        3.95237
H         -5.68536        2.38960        2.82271
H         -6.25491        1.07462        3.85380
H          3.05488       -3.32473        3.74328
H          3.16775       -4.01273        2.12215
H          4.62980       -3.75337        3.07061
H          4.79925        3.06363       -3.14409
H          3.58340        3.96790       -4.04817
H          4.64122        4.80200       -2.90772
