64
-97.20778024
Cl        -1.51060       -1.45378       -2.59904
Cl         1.67335       -1.43607       -2.87947
P          1.95146       -0.61586        0.27659
C          2.20928       -2.29043        1.02279
C          3.71873       -0.14176       -0.03847
P         -1.28341       -0.14778        0.37801
C          1.23809        0.57591        1.46322
C         -0.19000        0.81563        1.48979
C         -0.44501        1.92190        2.40168
C          0.83184        2.37128        2.92844
C          1.87339        1.54634        2.34116
H         -1.41858        2.35929        2.62781
H          0.98268        3.18790        3.63801
Pd         0.21553       -0.99288       -1.24011
H          2.94639        1.63347        2.52414
C         -4.90264        2.38184       -0.75091
C         -4.17617        1.75225       -1.74180
C         -3.09009        0.96750       -1.40412
C         -2.72342        0.82729       -0.08492
C         -3.46006        1.43482        0.90666
C         -4.55110        2.21812        0.57438
H         -5.75153        2.99286       -1.01137
H         -4.45953        1.86432       -2.77553
H         -2.54098        0.43687       -2.16298
H         -3.18952        1.28030        1.93862
H         -5.12584        2.69787        1.34956
C         -2.72695       -3.96188        2.37669
C         -2.36348       -2.87594        3.14964
C         -1.92878       -1.71183        2.54142
C         -1.85906       -1.64655        1.16913
C         -2.22479       -2.72256        0.39519
C         -2.65993       -3.88739        0.99896
H         -3.06553       -4.86918        2.84990
H         -2.41743       -2.93443        4.22435
H         -1.63867       -0.85495        3.12855
H         -2.16447       -2.64012       -0.67820
H         -2.94538       -4.73327        0.39542
C          4.06063       -0.13556       -1.51181
H          3.85726        0.85952        0.39008
C          4.50628       -1.19893        0.76045
H          4.71527       -0.82451        1.77331
C          3.72171       -2.53460        0.85734
H          5.48912       -1.35881        0.29355
C          1.74716       -2.29755        2.46372
H          1.62396       -3.00308        0.42560
H          4.09097       -3.14200        1.69624
H          3.90793       -3.13266       -0.04660
H          1.89845       -3.27409        2.92976
H          2.30156       -1.56015        3.04771
H          0.68739       -2.04714        2.54191
H          3.90370       -1.12514       -1.94366
H          3.43840        0.56708       -2.06841
H          5.10528        0.13550       -1.67967
Fe         0.79233        2.46096        0.87254
C          2.10560        3.16644       -0.53969
C          1.36987        4.24161        0.10418
C         -0.04806        4.02549       -0.13411
C         -0.19052        2.81357       -0.91896
C          1.13550        2.27218       -1.14270
H          3.19205        3.05841       -0.57218
H          1.80824        5.08561        0.64231
H         -0.86303        4.67207        0.19978
H         -1.12881        2.38448       -1.27001
H          1.36485        1.38966       -1.74274
