171
-217.84678100
P         -1.59696        0.46566       -0.25001
P          1.56656       -0.34027       -0.33478
C         -0.89190        1.45778       -1.57546
C          0.81956       -1.25470       -1.68651
C         -0.12214        0.87991       -2.57961
C          0.49863        1.71958       -3.52451
C          0.29894        3.08799       -3.45045
C         -0.48774        3.63944       -2.46181
C         -1.07428        2.81830       -1.51940
C          1.00130       -2.61475       -1.73581
C          0.41795       -3.35541       -2.74523
C         -0.35556       -2.72370       -3.69624
C         -0.55374       -1.35312       -3.66158
C          0.05529       -0.59616       -2.64212
Cl         1.71849        0.55641        2.81278
Cl        -1.53792       -0.28769        2.91504
C         -1.38345       -0.70308       -4.71307
C          1.37592        1.17168       -4.59533
H         -0.63829        4.70572       -2.41826
H         -1.67665        3.24246       -0.73261
H          1.60374       -3.09781       -0.98327
H          0.56838       -4.42156       -2.79051
H          0.77491        3.72436       -4.17745
H         -0.81688       -3.29807       -4.48182
C         -3.66779       -3.36823       -1.46566
C         -2.72962       -3.40490       -0.44138
C         -2.08798       -2.21962       -0.10911
C         -2.37345       -1.05845       -0.78294
C         -3.30607       -1.03659       -1.79099
C         -3.97967       -2.19897       -2.14887
H         -4.18840       -4.26860       -1.73217
H         -1.37695       -2.19452        0.69871
H         -3.51286       -0.10098       -2.28206
C         -4.57870        2.83178        2.21715
C         -5.04245        1.81613        1.39116
C         -4.10806        1.11853        0.63727
C         -2.77426        1.43621        0.70641
C         -2.33408        2.44642        1.52587
C         -3.23282        3.16490        2.30421
H         -5.28516        3.36914        2.82280
H         -4.41306        0.30737        0.00099
H         -1.27894        2.65405        1.57118
C          4.25634       -3.07625        2.09337
C          2.88053       -3.17838        2.25528
C          2.07498       -2.35348        1.48069
C          2.63139       -1.43545        0.62388
C          3.99456       -1.32771        0.50249
C          4.83805       -2.15568        1.23146
H          4.89623       -3.73070        2.65545
H          1.00342       -2.40806        1.55655
H          4.39745       -0.58472       -0.16131
C          3.95589        3.24190       -1.71694
C          2.97455        3.42219       -0.75055
C          2.25544        2.30682       -0.34108
C          2.49588        1.07976       -0.90658
C          3.45096        0.92257       -1.88115
C          4.21124        2.00788       -2.30190
H          4.55327        4.08578       -2.00862
H          1.50585        2.38379        0.42700
H          3.59966       -0.05621       -2.30458
Pd         0.04569        0.15844        1.37974
C         -0.92642       -5.04106        0.14782
C         -2.40885       -4.68086        0.34892
C         -3.26650       -5.87370       -0.11503
C         -2.69074       -4.43215        1.84309
H         -0.27653       -4.21883        0.44155
H         -0.65269       -5.91604        0.73697
H         -0.72562       -5.26432       -0.89922
H         -3.02976       -6.76701        0.46287
H         -4.32867       -5.66760        0.01592
H         -3.08477       -6.10308       -1.16487
H         -2.46230       -5.31702        2.43683
H         -2.09466       -3.60708        2.22979
H         -3.73994       -4.18222        1.99890
C         -5.26241       -0.83187       -3.87219
C         -5.08378       -2.21481       -3.21586
C         -6.41658       -2.61117       -2.55346
C         -4.72843       -3.23793       -4.31082
H         -6.04259       -0.86284       -4.63264
H         -5.55135       -0.08241       -3.13566
H         -4.34390       -0.50274       -4.35585
H         -6.67758       -1.90832       -1.76278
H         -7.22777       -2.61676       -3.28128
H         -6.35840       -3.60485       -2.11076
H         -4.66433       -4.24698       -3.90562
H         -5.48246       -3.24391       -5.09773
H         -3.76806       -3.00133       -4.76641
C         -6.83844        0.34511        0.34875
C         -6.53851        1.47408        1.35521
C         -7.33837        2.72202        0.93853
C         -6.98416        1.01223        2.75442
H         -7.90480        0.12114        0.32429
H         -6.53758        0.62948       -0.65940
H         -6.31610       -0.57216        0.62019
H         -7.01517        3.07674       -0.04000
H         -8.40419        2.50124        0.88250
H         -7.20435        3.53549        1.65051
H         -8.04013        0.74264        2.75894
H         -6.41114        0.14111        3.07160
H         -6.83637        1.79697        3.49544
C         -1.25647        4.50109        3.18746
C         -2.77619        4.26221        3.27544
C         -3.11977        3.83419        4.71365
C         -3.49552        5.58045        2.93548
H         -0.97046        4.80878        2.18245
H         -0.94700        5.28819        3.87482
H         -0.70046        3.60036        3.44717
H         -4.19327        3.69854        4.83992
H         -2.63261        2.89056        4.95888
H         -2.78996        4.58281        5.43371
H         -3.28306        5.88057        1.90948
H         -4.57541        5.48235        3.03896
H         -3.16995        6.38364        3.59634
C          0.81318       -3.86076        3.56471
C          2.28459       -4.19173        3.24325
C          3.07143       -4.16472        4.56887
C          2.36199       -5.59607        2.62253
H          0.18270       -3.97274        2.68545
H          0.42220       -4.53032        4.33057
H          0.71435       -2.83885        3.93075
H          4.09932       -4.49788        4.43407
H          3.09340       -3.15621        4.98139
H          2.61057       -4.82044        5.30750
H          1.93602       -6.34379        3.29127
H          1.81455       -5.63227        1.68100
H          3.39547       -5.87465        2.41788
C          6.80053       -0.97962        0.11763
C          6.36663       -2.06703        1.12033
C          6.92225       -3.42076        0.64197
C          6.95543       -1.71973        2.49993
H          6.44245        0.00249        0.42599
H          7.88698       -0.92750        0.04845
H          6.41652       -1.19146       -0.87998
H          6.68650       -4.21744        1.34653
H          6.49641       -3.69127       -0.32412
H          8.00606       -3.38130        0.53414
H          8.04019       -1.62744        2.44951
H          6.55207       -0.77437        2.86235
H          6.71991       -2.48752        3.23594
C          3.97504        5.20802        0.68840
C          2.74088        4.81013       -0.13954
C          1.50390        4.82004        0.77951
C          2.51408        5.83862       -1.26388
H          3.83911        6.18748        1.14659
H          4.15384        4.48420        1.48336
H          4.86883        5.24903        0.06663
H          1.32147        5.82013        1.17243
H          0.61281        4.50884        0.23495
H          1.64020        4.15328        1.63065
H          2.30021        6.82485       -0.85228
H          3.39048        5.93069       -1.90389
H          1.67225        5.54479       -1.88972
C          5.20928        2.91986       -4.43057
C          5.35402        1.86341       -3.31780
C          5.35776        0.46763       -3.97176
C          6.69404        2.06905       -2.58894
H          5.99655        2.80796       -5.17596
H          4.25137        2.82248       -4.93914
H          5.27542        3.93149       -4.03278
H          5.53011       -0.31388       -3.23228
H          4.41097        0.26609       -4.47197
H          6.14927        0.39200       -4.71721
H          6.74792        3.05992       -2.13893
H          6.81692        1.33476       -1.79361
H          7.53328        1.96603       -3.27658
H         -1.80612        0.23843       -4.35954
H          0.89304        1.24337       -5.57088
H         -2.21116       -1.34619       -5.01179
H         -0.78969       -0.49434       -5.60380
H          1.62480        0.12516       -4.41515
H          2.31239        1.72679       -4.64521
