105
-153.06440810
Cl        -0.02931        1.93694        3.10364
Pd        -0.47038        1.31410        0.98562
P         -1.10295        0.51343       -1.14010
N         -0.70781       -0.99796       -1.95498
C          0.21220       -1.98986       -1.61644
C          0.34826       -2.48255       -0.29381
C          1.29780       -3.49273       -0.02895
C          1.40354       -4.05131        1.37103
C          2.64687       -4.91881        1.62594
C          2.90010       -5.87699        0.45938
C          3.10395       -5.09372       -0.84518
C          2.07436       -4.01468       -1.06794
C          1.89440       -3.53939       -2.36063
C          0.97974       -2.55677       -2.63268
H          0.85992       -2.19126       -3.63765
H          2.49509       -3.94832       -3.15543
H          4.09864       -4.63252       -0.84776
H          3.76216       -6.52689        0.66672
H          3.52190       -4.26967        1.75669
H          1.39055       -3.21990        2.08416
C         -0.65387       -2.12905        0.74140
C         -0.24206       -1.52262        1.95894
C         -1.17997       -1.38714        2.98679
C         -2.47398       -1.80754        2.82250
C         -2.89926       -2.38908        1.63436
C         -4.33074       -2.86126        1.54729
C         -4.78630       -3.23642        0.12808
C         -3.70128       -4.03735       -0.59613
C         -2.40289       -3.22360       -0.69890
C         -1.98854       -2.55178        0.58823
H         -1.58432       -3.86703       -1.04493
H         -4.04677       -4.35168       -1.59120
H         -5.00127       -2.32423       -0.44191
H         -4.98506       -2.08545        1.96422
H         -3.18163       -1.68895        3.62558
H         -0.87661       -0.91856        3.90653
N          1.05078       -1.00932        2.14203
P          1.60500        0.20895        0.99527
C          2.61956       -0.34511       -0.36191
C          2.42768        0.22659       -1.59479
C          3.24680       -0.13109       -2.64985
C          4.26524       -1.05762       -2.46793
C          4.46284       -1.59641       -1.20295
C          3.64040       -1.23910       -0.14948
H          3.78711       -1.65131        0.83623
H          5.26393       -2.29873       -1.04849
C          5.15183       -1.44122       -3.60059
H          3.09626        0.30568       -3.62216
H          1.63210        0.94040       -1.72494
C          2.52749        1.52627        1.79431
C          3.24334        1.27470        2.93979
C          3.95529        2.29676        3.54126
C          3.96218        3.57201        2.99196
C          3.23385        3.80400        1.83288
C          2.52329        2.78097        1.23171
H          1.96006        2.95705        0.32825
H          3.22321        4.79210        1.40556
C          4.70207        4.68011        3.65690
H          4.50895        2.10969        4.44548
H          3.24767        0.28125        3.35809
H          1.19908       -0.57002        3.04131
H         -0.98888       -0.90817       -2.92330
C         -0.60584        1.88475       -2.19681
C         -0.85746        3.17914       -1.80968
C         -0.45934        4.23340       -2.60880
C          0.20064        3.99980       -3.80710
C          0.43251        2.68719       -4.19406
C          0.03004        1.63588       -3.39111
H          0.22724        0.61974       -3.68828
H          0.93217        2.49343       -5.12791
C          0.61247        5.13324       -4.68072
H         -0.66049        5.24677       -2.30584
H         -1.37260        3.35899       -0.88136
C         -2.89861        0.53629       -1.08551
C         -3.57745        0.80954       -2.24933
C         -4.96104        0.82268       -2.25338
C         -5.67291        0.57271       -1.08819
C         -4.96930        0.29059        0.07402
C         -3.58721        0.26380        0.07091
H         -3.03853        0.04528        0.97263
H         -5.51145        0.09407        0.98295
C         -7.16178        0.56320       -1.09191
H         -5.49644        1.03066       -3.16396
H         -3.02175        1.01266       -3.15147
Cl        -2.29754        2.63434        0.97087
H          3.09587       -5.77724       -1.70392
H          2.54917       -5.47323        2.57002
H          2.04128       -6.55118        0.34960
H          0.49717       -4.63155        1.58078
H         -3.50595       -4.96565       -0.04475
H         -2.51654       -2.45150       -1.46852
H         -4.44885       -3.72668        2.21033
H         -5.73224       -3.79564        0.15475
H          5.50620       -2.46732       -3.49200
H          4.62449       -1.37328       -4.55320
H          6.02310       -0.78674       -3.64991
H          5.57818        4.30573        4.18824
H          5.04623        5.41636        2.92921
H          4.06413        5.19241        4.37831
H          1.50035        4.88007       -5.26182
H         -0.18423        5.39322       -5.37901
H          0.84574        6.02054       -4.09049
H         -7.55846        1.21914       -1.86804
H         -7.54203       -0.44293       -1.27411
H         -7.55895        0.90529       -0.13520
