45
-71.81439157
C          1.53297        1.10433        2.67275
P          1.25817        0.83485        0.88894
P         -1.29417        0.20648       -0.84499
C         -1.21896       -0.32076       -2.59038
Cl         1.64672       -2.13036        1.72432
H          2.18397        1.96039        2.82531
H         -1.88781        0.28923       -3.19067
Cl        -0.80290       -2.95796       -0.54846
C          0.35192        2.19158        0.12678
C         -0.73266        1.91231       -0.67390
C         -1.38369        2.93200       -1.33834
C         -0.95083        4.23758       -1.18649
C          0.13529        4.51685       -0.37965
C          0.79443        3.49012        0.27354
H         -2.22288        2.70080       -1.97465
H         -1.45981        5.03596       -1.70101
H          0.47598        5.53282       -0.26595
H          1.65911        3.69014        0.88576
Pd         0.16391       -1.15056        0.35653
H         -1.51877       -1.36136       -2.67502
H          1.99256        0.22518        3.11525
H         -0.20652       -0.21436       -2.96884
C         -5.51967       -0.35185        0.77638
C         -4.99971        0.92125        0.65191
C         -3.71758        1.09816        0.16446
C         -2.96252        0.00493       -0.19789
C         -3.47708       -1.26439       -0.06487
C         -4.75846       -1.44713        0.42042
H         -6.51879       -0.49095        1.15598
H         -5.59131        1.77647        0.93473
H         -3.30072        2.08686        0.07350
H         -2.85923       -2.10921       -0.32007
H         -5.15846       -2.44228        0.52522
C          4.99558        0.07905       -1.58939
C          3.80148        0.41775       -2.19490
C          2.68112        0.65545       -1.41913
C          2.76508        0.55782       -0.04798
C          3.95035        0.21341        0.55991
C          5.07173       -0.02456       -0.21405
H          5.86931       -0.10893       -2.19178
H          3.74044        0.49405       -3.26804
H          1.73856        0.91637       -1.87360
H          3.99259        0.12012        1.63274
H          6.00238       -0.29631        0.25645
H          0.58280        1.28941        3.16570
