111
-148.55527706
P         -2.51757        2.10525        1.06563
P          0.09152        0.40222        0.53516
C         -1.44245        1.65169        2.45435
C         -0.28083        0.95196        2.20969
C         -3.24727        3.79133        1.29363
C         -2.57395        4.81633        0.40738
C         -1.78004        1.99180        3.74882
H         -2.69949        2.52070        3.93886
C         -0.94478        1.63666        4.79413
H         -1.20765        1.90165        5.80523
C          0.22298        0.94133        4.54432
H          0.87152        0.66300        5.35863
C          0.55421        0.59362        3.24700
H          1.45261        0.03526        3.03448
Pd        -1.32318        1.59783       -0.84741
Cl        -2.93629        2.64565       -2.00079
Cl        -0.03499        1.04608       -2.60291
C         -4.74019        3.55855        0.99694
C         -4.06094        1.08969        0.95897
H         -3.00542        5.81017        0.54747
H         -1.50308        4.87819        0.61533
H         -2.68768        4.55474       -0.64524
H         -4.92337        3.76160       -0.06724
H         -5.35921        4.28324        1.54753
H         -4.15385        0.78829       -0.09308
C         -5.16584        2.09846        1.32511
C         -3.98478       -0.12338        1.86056
H         -3.10687        4.04922        2.35100
H         -5.38136        2.01259        2.39902
H         -6.10552        1.83921        0.81412
H         -3.82726        0.17452        2.89883
H         -4.90470       -0.71118        1.81890
H         -3.15468       -0.77387        1.57669
C         -1.16455       -3.93002       -0.07972
C         -1.14753       -3.39085        1.23262
C         -0.75932       -2.07165        1.39499
C         -0.47319       -1.28270        0.31225
C         -0.59566       -1.76840       -0.96197
C         -0.97817       -3.07681       -1.19719
O         -1.32336       -5.32823       -0.27168
C         -1.49808       -4.22487        2.47446
H         -0.65824       -1.64509        2.37710
H         -0.37328       -1.10110       -1.77629
C         -1.14521       -3.55184       -2.64838
C          4.46163        0.64852       -0.70323
C          3.90776       -0.59138       -0.29403
C          2.57421       -0.62040        0.07648
C          1.82467        0.52611        0.11768
C          2.38257        1.74280       -0.17243
C          3.71137        1.84353       -0.55228
O          5.74942        0.68759       -1.30096
C          4.70681       -1.90395       -0.29287
H          2.09164       -1.55181        0.31786
H          1.75434        2.61541       -0.12041
C          4.30001        3.23253       -0.84420
C         -2.09547       -3.32967        3.58415
C         -2.55575       -5.29369        2.14439
C         -0.22282       -4.88990        3.01424
C         -2.20344       -4.66488       -2.75155
C         -1.62581       -2.38926       -3.54758
C          0.20776       -4.05359       -3.17564
C         -0.09775       -6.04946       -0.29644
H         -2.44959       -3.93408        4.41894
H         -1.35917       -2.63409        3.98387
H         -2.94084       -2.75574        3.20622
H         -2.85281       -5.84061        3.03888
H         -3.44583       -4.83320        1.71688
H         -2.17769       -6.01776        1.42696
H         -0.43721       -5.48079        3.90437
H          0.22198       -5.54906        2.27256
H          0.52118       -4.13861        3.27836
H         -3.15424       -4.32916       -2.33893
H         -2.36725       -4.95507       -3.78905
H         -1.89907       -5.55424       -2.20561
H         -1.87077       -2.74838       -4.54677
H         -2.51759       -1.92085       -3.13203
H         -0.86024       -1.62361       -3.66284
H          0.12417       -4.38900       -4.20901
H          0.95369       -3.25995       -3.13749
H          0.57916       -4.88490       -2.58100
H          0.74510       -5.37355       -0.14581
H         -0.10248       -6.80490        0.48914
H          0.01015       -6.55615       -1.25529
C          5.73553        0.52847       -2.71425
C          6.19442       -1.64913        0.00961
C          4.18202       -2.86086        0.80260
C          4.55128       -2.59315       -1.65725
C          3.61391        4.31006        0.02604
C          5.80286        3.28152       -0.51393
C          4.06944        3.57832       -2.32330
H          6.30849       -1.12388        0.95728
H          6.74777       -2.58583        0.07204
H          6.65932       -1.04386       -0.76441
H          4.15573       -2.36333        1.77174
H          3.18077       -3.22478        0.57620
H          4.82598       -3.73540        0.89279
H          3.50258       -2.80702       -1.86287
H          4.92378       -1.96405       -2.46204
H          5.09942       -3.53456       -1.68416
H          4.11359        5.27220       -0.08462
H          2.57326        4.45673       -0.25914
H          3.64635        4.03537        1.08005
H          6.37124        2.60511       -1.14721
H          6.20375        4.28418       -0.66041
H          5.97738        2.99437        0.52243
H          4.55653        2.85902       -2.97707
H          4.46124        4.56733       -2.55933
H          3.00540        3.57075       -2.55872
H          4.71211        0.41231       -3.07335
H          6.18946        1.40028       -3.18511
H          6.31959       -0.34936       -2.99000
