72
-98.10156931
Fe         0.02372        2.81825        0.02209
P          1.88737       -0.05489       -0.06346
P         -1.83991       -0.04134        0.04174
C          1.44779        1.56000        0.67612
C          0.45127        1.76282        1.71333
C          0.39107        3.18547        1.99974
C          1.37627        3.85454        1.16795
C          2.04931        2.84673        0.36574
C         -1.40782        1.59592       -0.67351
C         -1.98182        2.87890       -0.29399
C         -1.31939        3.91534       -1.06773
C         -0.35866        3.27465       -1.94680
C         -0.42282        1.84347       -1.71072
C          3.31005       -0.72863        0.91991
C          4.49757        0.02705        0.30134
C          2.81659        0.18498       -1.65895
C          4.29585        0.29542       -1.21615
C         -3.18221       -0.76488       -1.02437
C         -4.36313        0.14810       -0.65230
C         -2.94694        0.28370        1.50681
C         -4.32190        0.56129        0.84977
H         -0.15223        0.98187        2.17721
H         -0.26273        3.66398        2.73273
H          1.59376        4.92512        1.16638
H          2.84895        3.02001       -0.35729
H         -2.75692        3.03815        0.45803
H          0.17121        1.08438       -2.21534
Cl         1.60046       -3.08491       -0.12359
Cl        -1.61241       -3.01697        0.30254
Pd         0.02635       -1.48504        0.05978
H          3.38040       -1.79914        0.69628
C          3.17738       -0.51048        2.42327
H          2.46560        1.12501       -2.10088
C          2.60125       -0.97405       -2.63313
H          5.43666       -0.51768        0.48526
H          4.60896        0.98360        0.83244
H          4.70666        1.27851       -1.48997
H          4.88859       -0.42903       -1.79160
H         -1.52646        4.98678       -1.01498
H          0.28853        3.77761       -2.66905
H          4.13627       -0.74856        2.90431
H          3.39122       -0.95117       -3.39696
H         -3.37486       -1.78176       -0.66312
C         -2.84202       -0.79489       -2.51702
H         -2.55706        1.17421        2.01419
C         -3.01604       -0.88668        2.48540
H         -5.31956       -0.33541       -0.90543
H         -4.31341        1.04566       -1.28630
H         -4.59975        1.61936        0.96385
H         -5.09335        0.00649        1.40201
H         -3.76605       -0.67348       -3.09935
H         -3.31210       -1.78729        1.93184
C          2.06560       -1.32941        3.05180
H          2.20794       -2.39657        2.87159
H          2.00151       -1.17984        4.13199
H          1.10167       -1.05731        2.62647
C          1.24536       -0.97390       -3.31620
H          1.10883       -0.08100       -3.92930
H          1.11588       -1.84021       -3.96902
H          0.43893       -0.99442       -2.58549
C         -2.14082       -2.07790       -2.94004
H         -1.25829       -2.27089       -2.33076
H         -2.79612       -2.94230       -2.81681
H         -1.82600       -2.05093       -3.98561
C         -1.72818       -1.14120        3.24654
H         -1.83545       -1.94898        3.97417
H         -0.92777       -1.42823        2.56769
H         -1.40212       -0.25179        3.78876
H          3.01711        0.55882        2.61343
H          2.75484       -1.91541       -2.08926
H         -2.23237        0.08407       -2.76186
H         -3.83283       -0.70503        3.19793
