111
-148.54866172
P         -2.35249        2.27709       -0.24646
P          0.03908        0.34207        0.50235
C         -1.76627        2.20384        1.46230
C         -0.75550        1.32785        1.79154
C         -2.48012        4.01361       -0.86541
C         -1.67025        4.17667       -2.13329
C         -2.35042        2.98449        2.43893
H         -3.12475        3.68377        2.16856
C         -1.93789        2.86378        3.75458
H         -2.39503        3.47053        4.51910
C         -0.95032        1.95761        4.08972
H         -0.63863        1.85261        5.11589
C         -0.35964        1.18536        3.10571
H          0.39898        0.46025        3.35602
Pd        -1.12588        0.76070       -1.47923
Cl        -2.55526        1.00734       -3.18916
Cl         0.09027       -0.86544       -2.44826
C         -3.99807        4.20849       -1.06262
C         -4.10942        1.72033       -0.46095
H         -1.73292        5.19616       -2.52161
H         -0.61612        3.94204       -1.96523
H         -2.03659        3.50363       -2.91097
H         -4.17332        4.89542       -1.90338
H         -4.42974        4.70429       -0.18078
H         -4.07028        0.78219       -1.03157
C         -4.72775        2.85650       -1.30059
C         -4.80250        1.49716        0.86603
H         -2.09277        4.66625       -0.07118
H         -5.79879        2.94628       -1.06748
H         -4.67663        2.59979       -2.36896
H         -4.88412        2.43242        1.42154
H         -5.81443        1.10860        0.72951
H         -4.25006        0.79105        1.48848
C         -1.23343       -4.00848        0.82190
C          0.11134       -3.71439        0.47849
C          0.49538       -2.38555        0.41110
C         -0.38085       -1.38147        0.72861
C         -1.64775       -1.66487        1.16982
C         -2.08772       -2.97368        1.28318
O         -1.74168       -5.32145        0.63811
C          1.12750       -4.80312        0.10341
H          1.47809       -2.11513        0.06878
H         -2.30153       -0.84240        1.40596
C         -3.48716       -3.23607        1.85945
C          4.50864        1.23771        0.10098
C          3.84703        0.44831       -0.87512
C          2.49082        0.22167       -0.72034
C          1.80456        0.67026        0.37774
C          2.46839        1.33575        1.37665
C          3.82626        1.59659        1.29321
O          5.81361        1.73413       -0.15049
C          4.54283       -0.17541       -2.09737
H          1.93966       -0.29488       -1.48540
H          1.90923        1.67530        2.22944
C          4.50976        2.24849        2.50792
C          2.55392       -4.37787        0.51680
C          0.82764       -6.12685        0.82976
C          1.09463       -5.01570       -1.41794
C         -4.53098       -3.06814        0.74493
C         -3.59109       -4.64327        2.47531
C         -3.79483       -2.23132        2.99278
C         -2.32579       -5.52778       -0.64237
H          2.58704       -4.10830        1.57205
H          3.26247       -5.18996        0.35532
H          2.90464       -3.52731       -0.06390
H          0.79767       -5.97476        1.90812
H         -0.13086       -6.53885        0.52430
H          1.59069       -6.87409        0.61317
H          1.32590       -4.08834       -1.94156
H          1.82118       -5.76783       -1.72407
H          0.11101       -5.34375       -1.74679
H         -4.49159       -2.06227        0.32728
H         -4.35373       -3.77036       -0.06706
H         -5.53846       -3.23702        1.12418
H         -4.56208       -4.79424        2.94638
H         -3.46787       -5.41725        1.72237
H         -2.82066       -4.78864        3.23180
H         -4.73725       -2.47589        3.48226
H         -3.00973       -2.24962        3.74824
H         -3.88255       -1.21308        2.61986
H         -3.38211       -5.77173       -0.53113
H         -2.22477       -4.62982       -1.25351
H         -1.83077       -6.36188       -1.13963
C          5.80662        2.98715       -0.81465
C          4.13121       -1.65884       -2.22121
C          4.10879        0.57428       -3.36787
C          6.07670       -0.14580       -1.98091
C          4.10906        3.73080        2.58721
C          4.05391        1.53345        3.79952
C          6.04294        2.13191        2.44939
H          4.38717       -2.20256       -1.31283
H          3.06241       -1.77131       -2.39465
H          4.64688       -2.13672       -3.05370
H          4.57446        0.14227       -4.25319
H          3.02838        0.52443       -3.49968
H          4.38945        1.62477       -3.31948
H          6.40013       -0.60788       -1.04883
H          6.54377       -0.68200       -2.80669
H          6.45441        0.87362       -1.99599
H          3.02791        3.83804        2.66999
H          4.56110        4.21026        3.45511
H          4.42938        4.27355        1.70006
H          4.24992        0.46346        3.73612
H          4.58682        1.92187        4.66708
H          2.99017        1.67121        3.98571
H          6.34472        1.09264        2.32411
H          6.50108        2.51177        3.36230
H          6.45044        2.70007        1.61662
H          5.29952        3.73182       -0.20360
H          6.83404        3.30588       -0.99174
H          5.28620        2.90276       -1.76738
