171
-217.83939190
P         -1.50291        0.18769       -0.42363
P          1.70509       -0.70989        0.33329
C         -0.49900        1.04122       -1.65028
C          1.08726       -1.69403       -1.04958
C          0.42423        0.31188       -2.38900
C          1.22901        0.98171       -3.33044
C          1.04346        2.34075       -3.52709
C          0.10690        3.04437       -2.79855
C         -0.66241        2.38851       -1.85796
C          1.12119       -3.05330       -0.84382
C          0.60267       -3.91514       -1.79074
C          0.03426       -3.40262       -2.93680
C         -0.02297       -2.03689       -3.15737
C          0.52047       -1.15884       -2.20080
Cl         0.65332       -0.92812        3.41361
Cl        -2.25028       -1.57450        2.33627
C         -0.67320       -1.53421       -4.39868
C          2.25060        0.24553       -4.12475
H         -0.02256        4.10207       -2.96014
H         -1.40016        2.92793       -1.28934
H          1.54600       -3.43806        0.07176
H          0.63406       -4.98011       -1.62832
H          1.63649        2.84750       -4.26907
H         -0.38441       -4.06739       -3.67363
C         -4.29436       -2.65674       -2.57546
C         -3.70100       -3.07462       -1.38996
C         -2.85923       -2.18539       -0.73808
C         -2.60489       -0.94620       -1.26623
C         -3.18573       -0.55395       -2.44739
C         -4.05346       -1.40302       -3.12486
H         -4.97712       -3.31374       -3.08005
H         -2.41913       -2.45046        0.20658
H         -2.94543        0.41742       -2.84348
C         -4.12756        3.25821        1.67509
C         -3.22347        2.54352        2.44885
C         -2.41650        1.61224        1.81053
C         -2.52864        1.38923        0.45817
C         -3.45189        2.08747       -0.28196
C         -4.26277        3.04780        0.30965
H         -4.74688        3.99666        2.15024
H         -1.70279        1.04935        2.38129
H         -3.53230        1.88133       -1.33444
C          5.57808       -2.60636        1.72585
C          4.64623       -2.23075        2.68661
C          3.45691       -1.66810        2.24791
C          3.21184       -1.49760        0.91028
C          4.13971       -1.88011       -0.02731
C          5.34874       -2.44201        0.36494
H          6.51070       -3.03754        2.03770
H          2.70465       -1.36634        2.95370
H          3.90821       -1.73915       -1.06945
C          2.85449        3.63681       -0.24254
C          3.59300        2.64383       -0.87315
C          3.18469        1.32702       -0.70409
C          2.09019        1.02706        0.06898
C          1.38321        2.02222        0.70306
C          1.75572        3.35287        0.56059
H          3.16287        4.65722       -0.37021
H          3.72945        0.52047       -1.16221
H          0.54565        1.76236        1.32565
Pd        -0.36433       -0.78488        1.40362
C         -4.89225       -5.31048       -1.64029
C         -3.94911       -4.45698       -0.77144
C         -4.58565       -4.28221        0.62002
C         -2.60508       -5.19705       -0.63674
H         -5.04757       -6.29203       -1.19260
H         -5.86851       -4.83687       -1.74184
H         -4.47602       -5.46384       -2.63583
H         -3.92890       -3.72772        1.28926
H         -5.52569       -3.73584        0.54713
H         -4.79063       -5.24870        1.07984
H         -2.13148       -5.31274       -1.61131
H         -1.91563       -4.65223        0.00726
H         -2.74643       -6.18956       -0.20955
C         -4.64545       -2.02992       -5.49672
C         -4.79444       -0.96170       -4.39607
C         -4.24250        0.37100       -4.94067
C         -6.28427       -0.77546       -4.05792
H         -5.14803       -1.71593       -6.41147
H         -3.59635       -2.20040       -5.73447
H         -5.08028       -2.98126       -5.19378
H         -4.75063        0.65171       -5.86311
H         -4.39118        1.18117       -4.22740
H         -3.17772        0.29428       -5.15910
H         -6.72464       -1.70660       -3.70248
H         -6.41085       -0.02660       -3.27619
H         -6.84657       -0.44977       -4.93288
C         -2.12267        1.85179        4.63906
C         -3.15413        2.77898        3.96455
C         -4.53506        2.49409        4.58381
C         -2.75449        4.23995        4.23625
H         -2.09415        2.02245        5.71498
H         -2.37329        0.80337        4.47821
H         -1.11989        2.02823        4.25247
H         -4.84398        1.46965        4.37678
H         -4.51309        2.62837        5.66512
H         -5.29613        3.16113        4.18083
H         -1.78661        4.46302        3.78986
H         -3.48281        4.93402        3.81843
H         -2.68465        4.43293        5.30659
C         -6.67943        3.68727        0.08579
C         -5.26839        3.87699       -0.50073
C         -5.29646        3.44782       -1.98138
C         -4.86780        5.36165       -0.42879
H         -6.96388        2.63531        0.06935
H         -6.73074        4.03189        1.11782
H         -7.41853        4.24592       -0.48821
H         -5.57702        2.39925       -2.07940
H         -6.02219        4.03724       -2.54155
H         -4.32358        3.59174       -2.45122
H         -3.86282        5.50810       -0.82462
H         -5.55315        5.97979       -1.00842
H         -4.87795        5.72404        0.59859
C          3.77847       -3.31318        4.77454
C          4.88115       -2.40831        4.19329
C          4.83278       -1.02992        4.87851
C          6.24910       -3.05365        4.48608
H          2.79178       -2.87156        4.63984
H          3.77940       -4.28551        4.28245
H          3.92795       -3.47412        5.84195
H          5.01386       -1.11977        5.94940
H          5.59002       -0.36613        4.46179
H          3.86149       -0.55530        4.74377
H          6.32284       -4.04060        4.02969
H          7.06345       -2.43544        4.10868
H          6.39756       -3.17472        5.55907
C          7.70231       -2.04402       -0.39984
C          6.42059       -2.85904       -0.65201
C          5.95877       -2.60488       -2.10099
C          6.71800       -4.36128       -0.49258
H          8.09872       -2.22825        0.59799
H          8.47793       -2.30357       -1.12016
H          7.50280       -0.97622       -0.48848
H          5.75697       -1.54725       -2.26949
H          6.72735       -2.90995       -2.81101
H          5.05539       -3.17009       -2.32977
H          7.46123       -4.69088       -1.21840
H          7.10138       -4.58663        0.50183
H          5.81359       -4.95026       -0.64415
C          4.44519        3.89327       -2.87606
C          4.84649        3.01272       -1.68018
C          5.56975        1.75891       -2.21122
C          5.82506        3.78373       -0.77405
H          3.94233        4.80207       -2.54738
H          5.32021        4.18542       -3.45642
H          3.76796        3.35616       -3.53805
H          5.88102        1.11086       -1.39205
H          4.92745        1.18632       -2.87901
H          6.46295        2.03516       -2.77133
H          6.09458        3.18590        0.09647
H          6.74106        4.03062       -1.31055
H          5.38771        4.71564       -0.41807
C          1.62493        5.83663        1.11745
C          1.00216        4.44434        1.33713
C          1.06247        4.11838        2.84107
C         -0.46364        4.49369        0.87513
H          2.66438        5.85766        1.44439
H          1.58515        6.12304        0.06663
H          1.08529        6.59462        1.68518
H          0.57356        3.17039        3.05950
H          2.09659        4.04506        3.17700
H          0.57171        4.89301        3.42959
H         -1.02569        5.24364        1.43117
H         -0.52488        4.74671       -0.18261
H         -0.95281        3.53347        1.02322
H         -1.64752       -2.00369       -4.53611
H          3.07615        0.89974       -4.40830
H         -0.06578       -1.75940       -5.27645
H         -0.82952       -0.45560       -4.36333
H          1.81654       -0.15788       -5.04034
H          2.66815       -0.58548       -3.55389
