87
-129.17973340
P         -1.57256       -0.28641       -0.38704
P          1.67888        0.33727        0.37081
C         -1.14694        1.00853       -1.55575
C          1.53429       -0.70460       -1.10569
C         -0.02158        0.82612       -2.34843
C          0.31915        1.82090       -3.28652
C         -0.49386        2.93622       -3.40743
C         -1.61366        3.09231       -2.61633
C         -1.93849        2.12294       -1.68765
C          2.20372       -1.90084       -0.98644
C          2.12805       -2.84982       -1.98783
C          1.35951       -2.60038       -3.10332
C          0.66166       -1.41267       -3.23830
C          0.75921       -0.43310       -2.23143
Cl         0.97610       -0.63769        3.36004
Cl        -1.61831       -2.17909        2.28064
H         -2.23222        3.96857       -2.72064
H         -2.81685        2.22937       -1.07318
H          2.77891       -2.09571       -0.09316
H          2.65560       -3.78430       -1.88929
H         -0.23778        3.69118       -4.13125
H          1.28246       -3.34203       -3.88029
C         -2.58417       -4.03483       -2.74549
C         -1.70119       -4.12761       -1.67841
C         -1.41324       -2.97727       -0.95465
C         -1.99577       -1.77747       -1.28966
C         -2.87699       -1.69482       -2.34205
C         -3.17474       -2.83002       -3.07315
H         -2.80448       -4.91757       -3.32123
C         -1.03508       -5.41489       -1.34213
H         -0.72469       -3.02408       -0.12821
H         -3.31502       -0.74151       -2.59349
H         -3.85992       -2.77169       -3.90289
C         -5.10512        1.02062        2.17666
C         -5.17366       -0.16119        1.46552
C         -4.10809       -0.55532        0.67842
C         -2.98406        0.23346        0.60778
C         -2.91240        1.40759        1.31968
C         -3.97529        1.82444        2.11023
H         -5.93152        1.32596        2.79555
H         -6.05405       -0.77956        1.52825
H         -4.14290       -1.48143        0.12818
H         -2.02306        2.00983        1.26181
C         -3.87691        3.08890        2.88895
C          6.06617        0.27618        1.58209
C          5.70146        0.59241        0.28811
C          4.36514        0.60958       -0.06754
C          3.40670        0.30699        0.87188
C          3.76988       -0.00717        2.15928
C          5.10535       -0.02091        2.53847
H          7.10620        0.25585        1.86016
H          6.45673        0.82329       -0.44517
H          4.06439        0.84787       -1.07582
H          3.00627       -0.25004        2.87603
C          5.49533       -0.38915        3.92687
C          0.35735        4.68823        0.28837
C         -0.06452        3.85073        1.30154
C          0.35049        2.53316        1.32008
C          1.16042        2.05757        0.31469
C          1.61064        2.89814       -0.67566
C          1.20945        4.22924       -0.70614
H          0.03723        5.71610        0.26868
H         -0.70310        4.22697        2.08401
H          0.07957        1.88048        2.13500
H          2.27064        2.51607       -1.43561
C          1.67485        5.14734       -1.78115
Pd        -0.15411       -0.70909        1.42474
C          1.52548        1.69187       -4.14943
C         -0.18917       -1.20938       -4.44422
H          2.20612        0.92823       -3.77095
H          1.24723        1.42083       -5.16855
H          2.07716        2.63199       -4.19202
H         -0.75669       -2.11210       -4.67479
H         -0.90721       -0.40211       -4.29679
H          0.42106       -0.96526       -5.31454
H         -0.07980       -5.50286       -1.86162
H         -0.84320       -5.48806       -0.27064
H         -1.65455       -6.26640       -1.62702
H         -3.20099        2.96871        3.73683
H         -3.49595        3.90039        2.26699
H         -4.84996        3.39506        3.27543
H          5.67979       -1.46141        4.00550
H          6.40296        0.13311        4.23273
H          4.70882       -0.13066        4.63738
H          0.83097        5.52901       -2.35762
H          2.20851        6.00025       -1.35944
H          2.34964        4.64078       -2.47243
