105
-153.07207576
Cl         0.31651        1.99461        3.02895
Pd        -0.32116        1.47721        0.93027
P         -1.20552        0.73733       -1.08032
N         -0.22858       -0.41941       -1.96618
C          0.35031       -1.64672       -1.67617
C          0.27134       -2.28893       -0.41512
C          0.99288       -3.48229       -0.20016
C          0.90525       -4.14922        1.15194
C          1.98886       -5.20923        1.40312
C          2.14222       -6.13231        0.19098
C          2.52397       -5.32937       -1.06198
C          1.73983       -4.05209       -1.23366
C          1.76841       -3.42622       -2.47237
C          1.09339       -2.25351       -2.68843
H          1.15202       -1.76895       -3.64758
H          2.34877       -3.86627       -3.26566
H          3.59125       -5.08048       -1.03003
H          2.88226       -6.91986        0.39218
H          2.94584       -4.71063        1.60186
H          0.95623       -3.37736        1.92936
C         -0.71035       -1.87394        0.61735
C         -0.27361       -1.26456        1.82608
C         -1.19958       -1.10069        2.86075
C         -2.49618       -1.52342        2.72300
C         -2.92792       -2.15526        1.56336
C         -4.33667       -2.68400        1.50638
C         -4.47154       -3.89135        0.56833
C         -3.89168       -3.55982       -0.80981
C         -2.41438       -3.13496       -0.72219
C         -2.03490       -2.33683        0.50604
H         -1.77993       -4.02873       -0.75436
H         -4.47914       -2.74969       -1.25532
H         -5.51981       -4.21259        0.48776
H         -5.00394       -1.88016        1.17652
H         -3.19435       -1.38150        3.53041
H         -0.88286       -0.61350        3.76609
N          1.03878       -0.80959        2.00912
P          1.73196        0.25651        0.78298
C          2.92788       -0.62766       -0.21702
C          3.24898       -0.20991       -1.48620
C          4.21414       -0.89190       -2.20470
C          4.87553       -1.97914       -1.64807
C          4.54834       -2.37241       -0.35751
C          3.57928       -1.69206        0.35750
H          3.31642       -1.99001        1.36020
H          5.05123       -3.21685        0.08173
C          5.88146       -2.74021       -2.43889
H          4.45651       -0.58565       -3.20796
H          2.74118        0.63903       -1.91256
C          2.68585        1.58650        1.52381
C          3.42737        1.34732        2.65530
C          4.16828        2.37110        3.21779
C          4.17832        3.63486        2.64256
C          3.42412        3.85380        1.49751
C          2.68492        2.82927        0.93522
H          2.10132        2.99614        0.04355
H          3.41546        4.83340        1.05099
C          4.94871        4.74576        3.26690
H          4.74143        2.19459        4.11190
H          3.42507        0.36272        3.09468
H          1.21511       -0.34881        2.89267
H         -0.25025       -0.13508       -2.93802
C         -1.03489        2.29015       -1.96563
C          0.23186        2.70559       -2.30024
C          0.41146        3.91578       -2.94549
C         -0.67956        4.71406       -3.26233
C         -1.94991        4.28187       -2.90457
C         -2.12649        3.07222       -2.25849
H         -3.11027        2.74089       -1.96871
H         -2.80024        4.90309       -3.12848
C         -0.48674        6.03109       -3.92995
H          1.40227        4.24927       -3.20285
H          1.07432        2.08230       -2.04853
C         -2.93399        0.27694       -1.19050
C         -3.37931       -0.29788       -2.35730
C         -4.72059       -0.60386       -2.50652
C         -5.62428       -0.32993       -1.48857
C         -5.15622        0.25800       -0.32157
C         -3.81713        0.56843       -0.17878
H         -3.46083        1.06649        0.70683
H         -5.84916        0.47941        0.47218
C         -7.05986       -0.69980       -1.62684
H         -5.07194       -1.06399       -3.41423
H         -2.67555       -0.50165       -3.14866
Cl        -2.09201        2.85158        1.07232
H          2.39540       -5.94614       -1.96071
H          1.76570       -5.78972        2.30945
H          1.19493       -6.65690        0.01310
H         -0.08773       -4.60266        1.25384
H         -4.00981       -4.41189       -1.49384
H         -2.13684       -2.55538       -1.61081
H         -4.66865       -2.94594        2.51910
H         -3.93068       -4.74558        0.99477
H          6.40197       -2.09033       -3.14370
H          6.63212       -3.19326       -1.78980
H          5.40225       -3.53851       -3.00739
H          5.83752        4.37103        3.77646
H          5.27665        5.46767        2.51767
H          4.33825        5.27497        3.99981
H          0.39035        6.01929       -4.57853
H         -1.34938        6.29094       -4.54509
H         -0.34910        6.82234       -3.19179
H         -7.37271       -0.68212       -2.67173
H         -7.23996       -1.70317       -1.23824
H         -7.69917       -0.00671       -1.07826
