115
-277.94389458
P         -1.80970        0.42105        0.12693
P          1.74437       -0.20818        0.40538
C         -2.23519        2.14589       -0.15720
C         -3.53926        2.53676        0.06170
H         -4.29967        1.79310        0.24366
C         -3.83305        3.87938        0.19061
H         -4.81839        4.19572        0.49256
C         -2.82564        4.82616        0.08573
C         -1.55009        4.42428       -0.27506
H         -0.77631        5.17294       -0.34667
C         -1.25222        3.08248       -0.39358
H         -0.24494        2.77212       -0.61614
C         -3.09084       -0.59405       -0.65205
C         -3.81668       -0.13118       -1.72607
H         -3.61887        0.85183       -2.12217
C         -4.77806       -0.93119       -2.30987
H         -5.34216       -0.59236       -3.16458
C         -5.02678       -2.19483       -1.81309
C         -4.29830       -2.65150       -0.73204
H         -4.49723       -3.64225       -0.35453
C         -3.33372       -1.85378       -0.15424
H         -2.77935       -2.21298        0.69581
C         -1.71217        0.01320        1.90383
C         -1.06020       -1.19145        2.09103
H         -0.62305       -1.68481        1.23986
C         -0.78907       -1.68288        3.36610
C         -1.37617       -1.03484        4.44604
H         -1.21248       -1.41361        5.44104
C         -2.02083        0.17320        4.27021
H         -2.35244        0.72387        5.13424
C         -2.09701        0.77840        3.01551
C          1.40319        0.33224        2.11364
C          0.74010        1.54558        2.11713
H          0.43422        1.97503        1.17816
C          0.29195        2.12649        3.30175
C          0.71461        1.56052        4.49850
H          0.41145        2.00880        5.42985
C          1.37114        0.34609        4.50472
H          1.57237       -0.13924        5.44477
C          1.62211       -0.34811        3.32100
C         -2.23759        2.28605        2.98988
H         -3.00718        2.59135        3.70790
H         -2.63879        2.59516        2.02911
C         -0.89435        3.05132        3.27728
H         -0.72310        3.84022        2.53683
H         -0.95463        3.58209        4.23395
C          0.38342       -2.60148        3.57689
H          0.31227       -3.44379        2.88017
H          0.30592       -3.05947        4.56926
C          1.75786       -1.85285        3.42414
H          2.41845       -2.10107        4.26257
H          2.28706       -2.22777        2.55280
C          2.15875       -1.95529        0.29228
C          1.19567       -2.89156       -0.01730
C          3.41216       -2.34997        0.70982
C          1.44342       -4.22683        0.22645
C          3.65526       -3.68522        0.96119
C          2.64950       -4.62234        0.78145
C          3.14087        0.73256       -0.25598
C          3.99167        0.18082       -1.18597
C          3.34040        2.02464        0.17411
C          5.03806        0.92344       -1.69157
H          3.82534       -0.82609       -1.53426
C          4.38843        2.76783       -0.32910
H          2.68147        2.45371        0.90949
C          5.24595        2.22011       -1.26163
H          5.69935        0.50977       -2.43646
H          4.55359        3.78579       -0.01331
Pd         0.08587        0.08212       -1.23643
Cl        -1.34673        0.63532       -2.87522
Cl         1.68911       -0.46643       -2.70662
H          4.58431       -3.99519        1.41179
H          4.15914       -1.60737        0.94443
H          0.66936       -4.96756        0.09716
H          0.23643       -2.58265       -0.39805
C         -4.44676        6.71519        0.56916
C         -2.98699        6.19276        0.70254
C         -2.53261        6.04139        2.18930
F         -4.49182        7.99770        0.96208
F         -4.79914        6.61404       -0.72099
F         -5.26424        5.96548        1.32127
F         -2.17576        7.06924        0.10553
F         -1.22388        5.75732        2.17949
F         -2.76249        7.18028        2.85630
F         -3.19277        5.01618        2.74607
C         -5.30901       -4.19074       -3.27583
C         -6.05011       -3.07823       -2.48005
C         -7.02657       -3.65996       -1.41556
F         -4.51560       -4.87735       -2.44066
F         -6.20783       -5.00344       -3.85158
F         -4.56339       -3.58556       -4.21280
F         -6.77455       -2.36789       -3.34903
F         -6.36161       -4.49748       -0.60758
F         -7.50864       -2.63001       -0.70393
F         -8.02785       -4.30118       -2.03763
C          7.67491        2.25682       -1.91980
C          6.34782        3.06809       -1.84453
C          5.88922        3.58914       -3.23626
F          7.90254        1.74138       -0.70240
F          7.54680        1.26721       -2.81461
F          8.67602        3.07978       -2.26823
F          6.56810        4.13025       -1.06473
F          4.78891        4.33215       -3.04282
F          6.86384        4.33474       -3.77836
F          5.59705        2.54423       -4.02479
C          4.14912       -6.50095        1.58979
C          2.69762       -5.94712        1.50053
C          2.06289       -5.68914        2.90408
F          4.88217       -5.71651        2.39189
F          4.11202       -7.75523        2.06608
F          4.66565       -6.49144        0.35202
F          1.94751       -6.84867        0.86236
F          0.77196       -5.39121        2.70912
F          2.18393       -6.78214        3.66938
F          2.66798       -4.63569        3.47077
