105
-153.05789916
Cl         0.06302        2.32542        2.95892
Pd        -0.34123        1.47091        0.91108
P         -0.96068        0.51653       -1.16817
N         -0.32665       -0.92932       -1.95752
C          0.40226       -2.04997       -1.55775
C          0.33267       -2.60862       -0.26007
C          1.10116       -3.74943        0.04980
C          0.94208       -4.39121        1.40882
C          1.48999       -5.82402        1.49052
C          2.87859       -5.90964        0.85016
C          2.82358       -5.50306       -0.63085
C          1.95176       -4.30353       -0.91000
C          1.98276       -3.75483       -2.18574
C          1.21523       -2.66604       -2.50776
H          1.26024       -2.24629       -3.49769
H          2.62517       -4.19764       -2.92809
H          3.83459       -5.29612       -1.00484
H          3.56524       -5.24195        1.38587
H          1.51739       -6.17551        2.53165
H          1.44260       -3.76918        2.15867
C         -0.64346       -2.11156        0.73765
C         -0.16865       -1.43235        1.89014
C         -1.08229       -1.10659        2.89636
C         -2.39631       -1.48713        2.80188
C         -2.86899       -2.18883        1.69779
C         -4.30539       -2.65220        1.70568
C         -4.63412       -3.69700        0.62723
C         -3.98950       -3.32896       -0.71240
C         -2.46251       -3.22432       -0.57971
C         -1.99851       -2.47201        0.64293
H         -2.02174       -4.22803       -0.55932
H         -4.39087       -2.36785       -1.05486
H         -5.72151       -3.81303        0.51528
H         -4.95833       -1.78128        1.58769
H         -3.08091       -1.24863        3.59812
H         -0.72831       -0.55865        3.75177
N          1.18996       -1.06215        2.02171
P          1.69762        0.32677        1.07264
C          2.59142       -0.07142       -0.42054
C          2.37164        0.70124       -1.53393
C          3.07254        0.44116       -2.69735
C          4.00686       -0.58447       -2.74469
C          4.22353       -1.34423       -1.60288
C          3.52171       -1.08322       -0.43996
H          3.69756       -1.66635        0.44943
H          4.93916       -2.14805       -1.63257
C          4.72847       -0.89518       -4.00923
H          2.89560        1.03399       -3.57818
H          1.65153        1.50187       -1.48874
C          2.68339        1.46952        2.03509
C          2.99339        1.14664        3.33324
C          3.73890        2.02439        4.09985
C          4.18025        3.22734        3.56435
C          3.84688        3.53779        2.25224
C          3.10131        2.65866        1.48759
H          2.83910        2.89637        0.46880
H          4.17044        4.47575        1.83436
C          4.95464        4.18875        4.39703
H          3.97528        1.78295        5.12201
H          2.63458        0.21570        3.74236
H          1.89260       -1.73641        1.74089
H         -0.59802       -0.87629       -2.93177
C         -0.66641        1.88768       -2.30966
C         -1.13188        3.14754       -2.01894
C         -0.91244        4.19341       -2.89432
C         -0.21492        3.98975       -4.07612
C          0.23910        2.71116       -4.36590
C          0.01267        1.66850       -3.48640
H          0.38451        0.68423       -3.71258
H          0.77170        2.53696       -5.28530
C          0.00507        5.11006       -5.03220
H         -1.28210        5.17782       -2.66299
H         -1.66438        3.31177       -1.09826
C         -2.74753        0.33366       -1.11790
C         -3.38462        0.18669       -2.32806
C         -4.76352        0.07686       -2.37610
C         -5.51632        0.13368       -1.21159
C         -4.85622        0.28138       -0.00029
C         -3.47744        0.36868        0.04570
H         -2.96683        0.47231        0.98928
H         -5.43121        0.33660        0.90816
C         -6.99782       -0.00763       -1.25295
H         -5.26293       -0.04773       -3.32165
H         -2.80039        0.16645       -3.23511
Cl        -2.19402        2.76255        0.86114
H          2.45690       -6.34503       -1.23016
H          0.80665       -6.50479        0.96751
H          3.29931       -6.91865        0.96483
H         -0.12026       -4.37981        1.68363
H         -4.26526       -4.05523       -1.48996
H         -2.04402       -2.73788       -1.46939
H         -4.53742       -3.05320        2.70073
H         -4.26511       -4.67953        0.94755
H          5.72387       -1.29300       -3.80682
H          4.18188       -1.63667       -4.59365
H          4.84752       -0.00240       -4.62473
H          5.63682        4.77993        3.78450
H          4.28564        4.87668        4.91574
H          5.55084        3.66840        5.14793
H         -0.81757        5.17767       -5.74537
H          0.07704        6.06500       -4.50973
H          0.92883        4.97118       -5.59565
H         -7.47116        0.59233       -0.47448
H         -7.39908        0.31992       -2.21298
H         -7.29146       -1.04744       -1.10207
