75
-122.80918989
P          1.78820       -0.57454        0.04093
C          3.07954       -1.24271       -1.02097
C          2.80535       -1.65858       -2.30375
C          3.81505       -2.18857       -3.08549
C          5.09184       -2.30762       -2.57385
C          5.36016       -1.90265       -1.28156
C          4.34793       -1.37217       -0.50214
H          4.53783       -1.06871        0.51569
H          6.35478       -2.00167       -0.87885
H          5.87951       -2.71986       -3.18320
H          3.60465       -2.50632       -4.09349
H          1.80541       -1.56237       -2.69417
C          1.70166       -1.64287        1.48398
C          1.86063       -2.99962        1.31689
C          1.88366       -3.83034        2.42285
C          1.75231       -3.29438        3.68870
C          1.58973       -1.93285        3.85113
C          1.56234       -1.10633        2.74324
H          1.41999       -0.04396        2.85223
H          1.47684       -1.51477        4.83784
H          1.76946       -3.94061        4.55104
H          2.00776       -4.89314        2.29566
H          1.98072       -3.40072        0.32285
C          2.19229        1.10455        0.55775
C          3.38022        1.73527        0.27040
C          3.56704        3.07187        0.59412
C          2.52312        3.76594        1.20507
C          1.32170        3.15155        1.48023
C          1.15521        1.79245        1.17034
O         -0.05904        1.13399        1.42867
C         -1.21968        1.83733        1.06307
C         -1.35330        3.20680        1.34236
C         -2.48836        3.87181        0.93530
C         -3.49972        3.21505        0.23506
C         -3.34235        1.86746       -0.05837
C         -2.22675        1.18387        0.36706
P         -1.85361       -0.53173       -0.04693
C         -1.67141       -1.51567        1.44788
C         -1.75789       -0.93959        2.69465
C         -1.71546       -1.73406        3.82515
C         -1.59115       -3.10336        3.69861
C         -1.50429       -3.67817        2.44618
C         -1.54725       -2.87997        1.31707
H         -1.50001       -3.31554        0.33133
H         -1.40408       -4.74646        2.34706
H         -1.55488       -3.72396        4.57901
H         -1.77695       -1.28410        4.80233
H         -1.85382        0.13014        2.77852
C         -3.19982       -1.32083       -0.94532
C         -4.48710       -1.18448       -0.47701
C         -5.52704       -1.82756       -1.12375
C         -5.26791       -2.61677       -2.22654
C         -3.97208       -2.77244       -2.67672
C         -2.93491       -2.12864       -2.02697
H         -1.91725       -2.24718       -2.36355
H         -3.76769       -3.39382       -3.53308
H         -6.07735       -3.11681       -2.73293
H         -6.53652       -1.71650       -0.76331
H         -4.67123       -0.59291        0.40588
Pd         0.01343        0.11648       -1.37380
Cl        -1.48832        0.20676       -3.04059
Cl         1.60342        1.19930       -2.53952
H         -4.08449        1.36154       -0.64964
C         -4.69459        3.95811       -0.24623
H         -5.57134        3.31018       -0.28313
H         -4.52550        4.35334       -1.24864
H         -4.92894        4.79591        0.41171
H         -2.58352        4.92190        1.14820
S         -0.03828        4.03542        2.19965
H          2.64718        4.80514        1.45346
C          4.86068        3.74325        0.29761
H          4.16020        1.19606       -0.23699
H          4.74938        4.82816        0.28296
H          5.60916        3.49150        1.04999
H          5.24463        3.43676       -0.67634
