111
-148.55266674
P         -2.59173        2.03441        0.78646
P          0.15822        0.47942        0.46209
C         -1.47853        1.84968        2.20916
C         -0.26903        1.20742        2.05438
C         -3.58203        3.59336        0.92091
C         -3.48082        4.42133       -0.34085
C         -1.84316        2.33463        3.44924
H         -2.79748        2.81962        3.57273
C         -0.98967        2.18198        4.52836
H         -1.27440        2.56141        5.49614
C          0.22369        1.54103        4.36803
H          0.88669        1.41922        5.20872
C          0.58280        1.04707        3.12703
H          1.51868        0.52870        2.98748
Pd        -1.29591        1.48371       -1.04396
Cl        -2.93057        2.11555       -2.43402
Cl         0.16069        0.83068       -2.63203
C         -5.00473        3.07153        1.21233
C         -3.94918        0.77692        0.76150
H         -2.44208        4.66700       -0.57377
H         -3.88846        3.87387       -1.19181
H         -4.03971        5.35616       -0.25409
H         -5.74455        3.77003        0.79464
H         -5.18577        3.06288        2.29725
H         -3.80031        0.16616       -0.13982
C         -5.22186        1.64060        0.64390
C         -3.90185       -0.08986        2.00057
H         -3.18042        4.15518        1.77473
H         -6.05434        1.14041        1.15992
H         -5.52681        1.71212       -0.41058
H         -4.69529       -0.84106        1.99675
H         -2.94487       -0.60960        2.08065
H         -4.02256        0.51684        2.90002
C         -1.22141       -3.85994        0.27713
C         -1.04168       -3.23890        1.54015
C         -0.60690       -1.92417        1.57008
C         -0.42144       -1.21633        0.41182
C         -0.69432       -1.78136       -0.80521
C         -1.13784       -3.08696       -0.90874
O         -1.44261       -5.26077        0.20078
C         -1.27439       -3.98491        2.86340
H         -0.39613       -1.43468        2.50434
H         -0.53756       -1.18214       -1.68484
C         -1.49273       -3.63802       -2.29808
C          4.56866        0.71960       -0.64984
C          3.82643       -0.45671       -0.92491
C          2.48824       -0.48157       -0.57288
C          1.90455        0.57073        0.08208
C          2.64055        1.67089        0.43654
C          3.98833        1.75681        0.12553
O          5.87552        0.87518       -1.18363
C          4.42855       -1.67897       -1.63514
H          1.87253       -1.32665       -0.82566
H          2.14188        2.47008        0.95717
C          4.79006        2.97653        0.60681
C          0.02284       -4.69311        3.28195
C         -1.68223       -3.00342        3.98560
C         -2.41657       -5.00796        2.72573
C         -2.57343       -4.73023       -2.20645
C         -2.06520       -2.51466       -3.19401
C         -0.22451       -4.19750       -2.96053
C         -0.25186       -6.02588        0.06125
H         -0.10690       -5.21881        4.22762
H          0.33407       -5.41903        2.53478
H          0.83243       -3.97378        3.40340
H         -2.54222       -2.40584        3.68580
H         -1.95333       -3.54470        4.89177
H         -0.86875       -2.32889        4.24841
H         -2.62581       -5.49253        3.67909
H         -3.32943       -4.52023        2.38531
H         -2.16687       -5.78656        2.00903
H         -2.21926       -5.59482       -1.65115
H         -3.46050       -4.34998       -1.70095
H         -2.86865       -5.07362       -3.19760
H         -2.88894       -2.00376       -2.69611
H         -1.30879       -1.77397       -3.44856
H         -2.44152       -2.92152       -4.13217
H          0.21239       -4.99585       -2.36500
H         -0.44445       -4.59617       -3.95049
H          0.52800       -3.41704       -3.07125
H          0.62418       -5.37692        0.09722
H         -0.19452       -6.75936        0.86545
H         -0.26734       -6.56163       -0.88759
C          5.90521        1.49047       -2.46545
C          3.72462       -2.97781       -1.17736
C          4.23554       -1.52642       -3.15162
C          5.92274       -1.83717       -1.30131
C          4.22161        3.50830        1.94241
C          6.26281        2.60825        0.86372
C          4.69936        4.09231       -0.44502
H          3.72606       -3.05745       -0.09058
H          2.69286       -3.02231       -1.52264
H          4.23249       -3.85488       -1.57788
H          4.63359       -2.38906       -3.68528
H          3.17764       -1.43521       -3.39721
H          4.73870       -0.63785       -3.52537
H          6.33298       -2.73770       -1.75763
H          6.50236       -0.99196       -1.66372
H          6.06990       -1.90535       -0.22397
H          3.23114        3.94256        1.81560
H          4.15405        2.70916        2.68023
H          4.86241        4.28873        2.35220
H          6.76059        2.29949       -0.05205
H          6.81428        3.45680        1.26789
H          6.33428        1.78685        1.57587
H          5.24718        4.97770       -0.12342
H          3.66174        4.37954       -0.61336
H          5.11162        3.76994       -1.39815
H          6.50233        2.40110       -2.42053
H          6.36759        0.81522       -3.18518
H          4.89372        1.73397       -2.79320
