111
-148.55256490
P         -2.15690        2.45222        0.91910
P         -0.13333        0.03789        0.58112
C         -1.35892        1.73812        2.37810
C         -0.46001        0.70639        2.22387
C         -2.03518        4.30013        0.97293
C         -1.00064        4.82756        0.00249
C         -1.61691        2.24756        3.63455
H         -2.32271        3.05453        3.74719
C         -0.96591        1.72167        4.73718
H         -1.16697        2.11738        5.71931
C         -0.05223        0.69740        4.57872
H          0.46163        0.29385        5.43564
C          0.20499        0.19131        3.31717
H          0.92669       -0.59811        3.17526
Pd        -1.29681        1.36296       -0.92810
Cl        -2.43760        2.86269       -2.15214
Cl        -0.38330        0.28204       -2.66965
C         -3.47947        4.74845        0.68533
C         -3.99606        2.25018        0.89568
H         -0.93046        5.91681        0.04645
H         -0.01196        4.41526        0.21396
H         -1.25434        4.55641       -1.02283
H         -3.58724        4.91629       -0.39511
H         -3.68110        5.72181        1.15785
H         -4.24856        1.92947       -0.12398
C         -4.51047        3.67969        1.14789
C         -4.45153        1.22246        1.90959
H         -1.75718        4.55521        2.00389
H         -4.70727        3.80108        2.22188
H         -5.48117        3.83024        0.65160
H         -5.53674        1.09762        1.89169
H         -3.99406        0.24839        1.71944
H         -4.17054        1.52296        2.92038
C         -1.05679       -4.41762        0.22666
C         -1.19278       -3.77706        1.48491
C         -0.90248       -2.42551        1.56895
C         -0.56843       -1.70030        0.45430
C         -0.56348       -2.29369       -0.78102
C         -0.83139       -3.64166       -0.93791
O         -1.11013       -5.83426        0.13950
C         -1.61703       -4.53245        2.75423
H         -0.93018       -1.92061        2.51728
H         -0.34838       -1.67549       -1.63377
C         -0.83988       -4.24139       -2.35286
C          4.07434        1.01001       -0.83983
C          3.60725       -0.32682       -0.92692
C          2.32692       -0.60295       -0.47935
C          1.55542        0.37005        0.09878
C          2.04242        1.63718        0.28722
C          3.31741        1.97986       -0.13263
O          5.27150        1.38904       -1.50294
C          4.43500       -1.46168       -1.54915
H          1.90439       -1.58420       -0.60067
H          1.39929        2.36385        0.75386
C          3.83445        3.40018        0.14206
C         -2.58073       -5.68469        2.41648
C         -0.36857       -5.07781        3.46372
C         -2.36461       -3.59033        3.72554
C          0.58151       -4.69327       -2.72133
C         -1.81648       -5.42750       -2.44751
C         -1.30542       -3.19137       -3.38772
C          0.15341       -6.47003        0.28683
H         -2.93458       -6.17802        3.32141
H         -3.44771       -5.31247        1.87169
H         -2.09728       -6.43787        1.79919
H          0.17923       -5.76568        2.82413
H          0.30693       -4.26620        3.73317
H         -0.63885       -5.60932        4.37582
H         -2.77973       -4.14942        4.56383
H         -1.70282       -2.83325        4.14367
H         -3.18746       -3.08577        3.21973
H          0.95392       -5.43628       -2.02003
H          0.60628       -5.12916       -3.71970
H          1.26939       -3.84846       -2.70609
H         -1.87127       -5.80986       -3.46645
H         -1.50791       -6.24812       -1.80476
H         -2.81812       -5.12445       -2.14448
H         -1.43863       -3.64704       -4.36854
H         -2.25650       -2.74988       -3.09153
H         -0.57810       -2.38960       -3.50528
H          0.38645       -7.03551       -0.61520
H          0.93434       -5.72913        0.46311
H          0.11638       -7.16589        1.12486
C          5.07041        1.83044       -2.83997
C          4.10719       -1.56029       -3.04693
C          5.94343       -1.22914       -1.34894
C          4.09637       -2.81257       -0.87775
C          3.24971        3.94360        1.46591
C          5.36667        3.41717        0.29051
C          3.40324        4.32675       -1.00499
H          4.66569       -2.36912       -3.51728
H          3.04469       -1.75082       -3.19684
H          4.35229       -0.63590       -3.56484
H          6.52362       -2.06773       -1.73318
H          6.27942       -0.33356       -1.86526
H          6.17631       -1.11160       -0.29116
H          4.20259       -2.74408        0.20455
H          3.08049       -3.13355       -1.10157
H          4.76415       -3.59808       -1.23079
H          3.70829        4.89652        1.72903
H          2.17697        4.11472        1.39528
H          3.43168        3.24710        2.28395
H          5.72415        4.41300        0.55129
H          5.68400        2.72726        1.07172
H          5.85847        3.12323       -0.63331
H          3.73865        5.34849       -0.82918
H          2.31809        4.33945       -1.10362
H          3.81677        3.99585       -1.95481
H          5.62430        1.18907       -3.52527
H          4.00978        1.80181       -3.09334
H          5.44269        2.84894       -2.94918
