64
-97.21359019
Cl        -1.56817       -1.30779       -2.55664
Cl         1.63729       -1.21427       -2.91481
P          1.96062       -0.62234        0.27199
C          2.16866       -2.29537        1.03859
C          3.74533       -0.19336       -0.01484
P         -1.28927       -0.15096        0.42530
C          1.25439        0.59045        1.44380
C         -0.17431        0.82658        1.50238
C         -0.41069        1.92786        2.42384
C          0.87473        2.38388        2.92038
C          1.90455        1.56980        2.30006
H         -1.38642        2.30438        2.73634
H          1.03787        3.19077        3.63796
Pd         0.19615       -0.92636       -1.22721
H          2.98060        1.65715        2.46372
C         -5.04801        2.06031       -0.92765
C         -4.08631        2.73813       -0.20583
C         -2.94430        2.07860        0.20872
C         -2.75983        0.75010       -0.10245
C         -3.72203        0.07274       -0.81655
C         -4.86808        0.72620       -1.23285
H         -5.93894        2.57241       -1.25290
H         -4.22421        3.77974        0.03407
H         -2.19024        2.60238        0.76848
H         -3.56921       -0.96740       -1.05470
H         -5.61634        0.19428       -1.79722
C         -2.59700       -3.97499        2.49658
C         -2.38833       -2.82767        3.23749
C         -1.99803       -1.66049        2.60530
C         -1.81792       -1.65352        1.24156
C         -2.03099       -2.79101        0.49821
C         -2.42094       -3.95892        1.12655
H         -2.90078       -4.88459        2.98860
H         -2.52771       -2.84078        4.30599
H         -1.82533       -0.75625        3.16729
H         -1.89993       -2.75252       -0.57138
H         -2.58830       -4.85241        0.54782
C          4.13000       -0.25968       -1.47655
H          3.89614        0.82141        0.37587
C          4.48653       -1.23520        0.84596
H          4.65315       -0.83584        1.85718
C          3.68359       -2.55975        0.94103
H          5.48764       -1.41664        0.42819
C          1.64729       -2.29010        2.45922
H          1.60039       -3.00419        0.42071
H          4.01114       -3.15089        1.80832
H          3.90018       -3.18129        0.06006
H          2.18804       -1.55885        3.06333
H          0.58940       -2.02359        2.49321
H          1.76433       -3.26700        2.93425
H          3.93425       -1.25551       -1.87744
H          3.56340        0.45196       -2.07879
H          5.19167       -0.04791       -1.62095
Fe         0.79324        2.48277        0.84560
C          1.29842        2.22457       -1.15665
C          2.18034        3.17129       -0.50223
C          1.36431        4.24973        0.02948
C         -0.02288        3.95583       -0.29124
C         -0.06024        2.71121       -1.03831
H          1.59935        1.33507       -1.71239
H          3.26980        3.10770       -0.45445
H          1.72957        5.13118        0.56203
H         -0.88164        4.59013       -0.05868
H         -0.94495        2.23883       -1.46905
