111
-148.55047826
P         -2.61905        1.97424       -0.49850
P          0.07302        0.53006        0.37140
C         -1.88757        2.32723        1.12065
C         -0.70809        1.71462        1.48493
C         -3.14597        3.52977       -1.35305
C         -2.37053        3.73910       -2.63532
C         -2.49885        3.21367        1.98387
H         -3.41345        3.70062        1.68723
C         -1.93180        3.47413        3.21942
H         -2.40965        4.16452        3.89519
C         -0.75453        2.85112        3.58655
H         -0.31358        3.05230        4.54899
C         -0.14090        1.96829        2.71605
H          0.77758        1.47321        2.98840
Pd        -1.10660        0.64124       -1.62690
Cl        -2.54399        0.53930       -3.34204
Cl         0.54304       -0.59260       -2.52229
C         -4.66377        3.33129       -1.55848
C         -4.22900        1.06391       -0.45033
H         -1.29434        3.77222       -2.44881
H         -2.55840        2.92437       -3.33606
H         -2.65729        4.67019       -3.12990
H         -4.96145        3.76640       -2.52340
H         -5.22178        3.89617       -0.79745
H         -4.02274        0.03633       -0.78004
C         -5.07251        1.83222       -1.48795
C         -4.82959        1.07210        0.93882
H         -2.94683        4.35135       -0.65151
H         -6.14041        1.73080       -1.24434
H         -4.94756        1.37435       -2.48038
H         -4.13995        0.65213        1.67277
H         -5.06015        2.09157        1.25236
H         -5.75914        0.49917        0.97799
C         -1.23639       -3.73297        1.27128
C         -0.02737       -3.50489        0.56560
C          0.34954       -2.19531        0.31987
C         -0.38207       -1.14516        0.80798
C         -1.49635       -1.35972        1.57641
C         -1.92440       -2.64473        1.86764
O         -1.78517       -5.04124        1.33599
C          0.84060       -4.64399        0.00962
H          1.20521       -1.97431       -0.29448
H         -2.03859       -0.50335        1.93646
C         -3.14256       -2.83726        2.78423
C          4.58453        1.11033        0.11182
C          3.75024        1.56672       -0.94026
C          2.38074        1.40885       -0.80657
C          1.84649        0.74469        0.26606
C          2.65601        0.20234        1.23040
C          4.03304        0.34274        1.16904
O          5.96501        1.44489        0.12216
C          4.30428        2.22139       -2.21589
H          1.70747        1.79443       -1.55274
H          2.19229       -0.33787        2.03767
C          4.90587       -0.30689        2.25458
C          0.40006       -4.95598       -1.42867
C          2.33024       -4.23329       -0.00693
C          0.73677       -5.90641        0.88451
C         -3.21043       -1.71058        3.84023
C         -4.42425       -2.80270        1.93808
C         -3.05547       -4.16567        3.55789
C         -2.67087       -5.34586        0.26549
H          1.00553       -5.75320       -1.85895
H         -0.64122       -5.26790       -1.46252
H          0.50188       -4.07464       -2.06160
H          2.52288       -3.43121       -0.71761
H          2.64775       -3.90177        0.98069
H          2.96028       -5.07428       -0.29558
H          1.00294       -5.68064        1.91659
H         -0.27226       -6.31045        0.88173
H          1.40522       -6.68833        0.52495
H         -3.42437       -0.74343        3.38977
H         -4.00028       -1.90689        4.56495
H         -2.26913       -1.63296        4.38365
H         -4.50237       -1.86226        1.39406
H         -4.43504       -3.60767        1.20695
H         -5.30961       -2.90551        2.56494
H         -2.12667       -4.21934        4.12480
H         -3.88583       -4.26750        4.25620
H         -3.08542       -5.01964        2.88599
H         -2.77315       -4.48680       -0.39891
H         -2.28684       -6.19605       -0.29795
H         -3.64867       -5.61493        0.66468
C          6.25751        2.68691        0.74980
C          5.69251        1.65780       -2.57008
C          3.38077        1.92743       -3.42093
C          4.38368        3.74236       -2.01752
C          6.26041       -0.75780        1.67801
C          5.12365        0.69512        3.39831
C          4.22100       -1.56696        2.82928
H          6.42461        1.89255       -1.80157
H          5.65118        0.57383       -2.67165
H          6.05632        2.07313       -3.50954
H          3.83653        2.26731       -4.35056
H          3.19117        0.85819       -3.51183
H          2.42303        2.43746       -3.32995
H          5.04114        3.99881       -1.19034
H          4.76270        4.23344       -2.91343
H          3.39890        4.15408       -1.79782
H          6.85325       -1.27745        2.43032
H          6.11297       -1.43327        0.83596
H          6.84432        0.08972        1.32760
H          5.73176        0.25811        4.18995
H          5.62595        1.59256        3.04572
H          4.17069        0.99748        3.83203
H          3.32332       -1.31768        3.39310
H          4.88940       -2.09463        3.50933
H          3.94693       -2.25444        2.03039
H          5.34359        3.14792        1.12646
H          6.94983        2.52397        1.57562
H          6.73465        3.35588        0.03391
