58
-89.86363437
P          1.52881       -0.36385        0.70783
C          2.18035        1.27471        0.37446
C          2.40498        1.61737       -0.93905
C          2.90700        2.86751       -1.24978
C          3.18827        3.76322       -0.23707
C          2.97494        3.40984        1.08115
C          2.47103        2.15881        1.38837
H          2.30341        1.87106        2.41338
H          2.19104        0.89430       -1.71060
C          2.81841       -1.59882        0.50694
C          2.49987       -2.91511        0.26281
C          3.50803       -3.85088        0.11707
C          4.82903       -3.46210        0.22009
C          5.14465       -2.14072        0.46699
C          4.13399       -1.20709        0.61106
H          4.36432       -0.17079        0.80070
H          1.46626       -3.20504        0.16535
C          0.84541       -0.54804        2.40634
C         -0.24531       -1.61325        2.43607
C         -1.64753       -1.08838        2.15771
P         -1.87156       -0.10679        0.60855
C         -1.29631        1.59407        0.78065
C         -1.13423        2.18721        2.01175
C         -0.68292        3.49157        2.09390
C         -0.40691        4.20024        0.94193
C         -0.58986        3.61025       -0.29205
C         -1.04127        2.30543       -0.36992
H         -1.19744        1.83522       -1.32822
H         -1.37407        1.64068        2.90842
C         -3.65017       -0.00381        0.33533
C         -4.26490       -0.58864       -0.74706
C         -5.63491       -0.49832       -0.90089
C         -6.38726        0.18376        0.03420
C         -5.77068        0.77532        1.11874
C         -4.39805        0.67990        1.26815
H         -3.90387        1.14088        2.10893
H         -3.66542       -1.09986       -1.47940
Pd        -0.14362       -0.72466       -0.86115
Cl         1.49229       -1.38358       -2.25968
Cl        -1.74564       -1.28062       -2.32309
H         -2.36222       -1.91295        2.09531
H         -1.98845       -0.45420        2.97748
H          0.00465       -2.39592        1.70714
H         -0.24184       -2.12466        3.41152
H          1.69371       -0.81298        3.04281
H          0.47269        0.41240        2.75992
H          3.07838        3.13956       -2.27821
H          3.19728        4.10897        1.87048
H          3.26161       -4.88086       -0.08221
H          6.17531       -1.83592        0.54489
H         -0.54730        3.95462        3.05752
H         -0.37750        4.16194       -1.19299
H         -6.11323       -0.95577       -1.75140
H         -6.35613        1.31091        1.84789
H          3.57770        4.73946       -0.47571
H          5.61492       -4.19058        0.10429
H         -0.04950        5.21504        1.00589
H         -7.45609        0.25718       -0.08410
