111
-148.55302466
P         -2.17752        2.47655        0.80585
P         -0.18172        0.02774        0.59279
C         -1.41978        1.80452        2.30483
C         -0.54349        0.74627        2.20836
C         -1.96640        4.31511        0.74269
C         -0.93811        4.71836       -0.29179
C         -1.68377        2.37499        3.53336
H         -2.36822        3.20538        3.59820
C         -1.06237        1.88251        4.66792
H         -1.26826        2.32544        5.62866
C         -0.16984        0.83256        4.56776
H          0.32387        0.45704        5.44891
C          0.09576        0.26748        3.33322
H          0.81243       -0.53308        3.23635
Pd        -1.30314        1.31027       -0.98352
Cl        -2.62369        2.60264       -2.26407
Cl        -0.29504        0.25440       -2.68781
C         -3.39357        4.81962        0.46007
C         -4.02425        2.36161        0.78852
H          0.03457        4.26969       -0.07921
H         -1.23935        4.38840       -1.28726
H         -0.81125        5.80281       -0.32812
H         -3.51294        4.94741       -0.62462
H         -3.54006        5.82057        0.89353
H         -4.29251        2.01388       -0.21814
C         -4.46725        3.82342        0.98298
C         -4.53163        1.39839        1.84038
H         -1.64444        4.61989        1.74708
H         -4.64287        4.00135        2.05278
H         -5.43676        3.99783        0.49210
H         -5.62153        1.32532        1.82211
H         -4.12113        0.39675        1.69116
H         -4.23999        1.72498        2.83988
C         -0.98436       -4.45141        0.25711
C         -1.06493       -3.82861        1.52890
C         -0.82101       -2.46780        1.61109
C         -0.57754       -1.72100        0.48721
C         -0.62149       -2.30259       -0.75293
C         -0.85820       -3.65646       -0.90980
O         -0.98923       -5.86821        0.15797
C         -1.37079       -4.61485        2.81349
H         -0.81211       -1.97334        2.56490
H         -0.45894       -1.67195       -1.60881
C         -0.93903       -4.23833       -2.32980
C          4.05142        1.05163       -0.71691
C          3.56651       -0.26736       -0.91099
C          2.27789       -0.55833       -0.49812
C          1.51204        0.37926        0.14202
C          2.00976        1.62509        0.42181
C          3.29454        1.97987        0.04413
O          5.27248        1.45746       -1.31803
C          4.38474       -1.36512       -1.60819
H          1.84434       -1.52251       -0.69420
H          1.37006        2.32366        0.93362
C          3.83221        3.36556        0.43376
C         -0.05576       -5.12163        3.42473
C         -2.08141       -3.71425        3.84953
C         -2.31246       -5.79875        2.52717
C          0.47259       -4.61384       -2.80577
C         -1.86141       -5.46994       -2.37592
C         -1.52925       -3.19838       -3.30992
C          0.30606       -6.45384        0.20199
H          0.46796       -5.78346        2.73912
H          0.60855       -4.28883        3.65447
H         -0.24031       -5.67108        4.34751
H         -2.95625       -3.23479        3.41107
H         -2.41488       -4.29938        4.70630
H         -1.41966       -2.93829        4.23156
H         -3.22987       -5.45318        2.05189
H         -1.84670       -6.52458        1.86511
H         -2.58118       -6.31728        3.44717
H          1.11610       -3.73493       -2.83100
H          0.93233       -5.34229       -2.14182
H          0.44619       -5.03993       -3.80832
H         -1.46914       -6.28321       -1.77077
H         -2.85248       -5.22098       -1.99809
H         -1.96992       -5.84056       -3.39491
H         -0.85358       -2.35865       -3.46428
H         -1.70985       -3.64606       -4.28682
H         -2.47739       -2.81049       -2.93872
H          0.50044       -6.98613       -0.72890
H          1.06667       -5.68541        0.34631
H          0.35395       -7.17122        1.02116
C          5.12013        1.99692       -2.62510
C          4.07954       -1.33865       -3.11382
C          5.89338       -1.17862       -1.36629
C          4.01101       -2.75887       -1.05265
C          5.35415        3.32306        0.66152
C          3.49057        4.37607       -0.67164
C          3.19139        3.84641        1.75605
H          3.01702       -1.50123       -3.29383
H          4.34434       -0.37941       -3.55241
H          4.63450       -2.11521       -3.63947
H          6.46489       -1.99381       -1.80942
H          6.25447       -0.25039       -1.80135
H          6.11024       -1.15312       -0.29893
H          4.67198       -3.52583       -1.45575
H          4.09780       -2.77890        0.03334
H          2.99443       -3.04243       -1.31951
H          5.60854        2.57928        1.41589
H          5.88472        3.06613       -0.25202
H          5.72725        4.28982        0.99862
H          3.83801        5.37478       -0.40837
H          3.95210        4.09885       -1.61606
H          2.41399        4.42421       -0.83144
H          3.30472        3.09520        2.53729
H          2.13017        4.05957        1.63683
H          3.66434        4.76459        2.10366
H          5.54345        3.00078       -2.65687
H          5.65776        1.37824       -3.34326
H          4.06494        2.03675       -2.89878
