72
-108.40407816
Cl        -1.71992        0.74751        2.75596
Cl         1.05161       -0.78091        2.74582
P          1.10891       -1.12448       -0.32023
P         -2.24785        0.07182       -0.35420
C         -3.20971       -1.54962       -0.14026
C         -3.54557       -1.74618        1.33973
C         -4.48580       -1.51502       -0.97356
C         -3.35562        1.59129       -0.05021
C         -4.19625        1.89675       -1.29707
C         -1.47915        0.42690       -2.03998
C         -1.53856       -0.71214       -3.03652
C          1.10394        0.24436       -1.51597
C         -0.07089        0.98817       -1.96759
C          0.41236        2.09653       -2.79286
C          1.86027        2.02742       -2.84223
C          2.28575        0.86729       -2.08192
C         -2.33032       -2.71259       -0.57596
H         -4.23618       -0.99422        1.71136
H         -4.01752       -2.71712        1.49891
H         -5.18476       -0.76649       -0.60425
H         -4.99583       -2.47887       -0.93338
C         -4.29058        1.40487        1.14087
H         -4.98480        2.61253       -1.05880
H         -4.67294        1.00245       -1.69411
H         -2.10552        1.23455       -2.42956
H         -0.86466       -1.51244       -2.74019
H         -1.21036       -0.38383       -4.02489
H         -2.54312       -1.11930       -3.14465
H         -0.21642        2.79614       -3.34690
H          2.51483        2.69891       -3.40274
Pd        -0.49134       -0.27092        1.18588
H          3.31252        0.54159       -1.90276
C         -2.40794        2.75052        0.22077
H         -3.60329        2.34705       -2.09229
H         -3.74841        1.08990        2.02987
H         -4.78976        2.34413        1.38337
H         -5.07239        0.67835        0.92720
H         -1.66208        2.84000       -0.57032
H         -2.95253        3.69504        0.27901
H         -1.89356        2.61018        1.17013
H         -2.64878       -1.71364        1.95844
H         -4.27574       -1.29676       -2.01950
H         -1.39710       -2.71058       -0.01563
H         -2.82560       -3.66611       -0.38457
H         -2.10099       -2.68072       -1.63789
C          2.79043       -1.20757        0.35325
C          3.26567       -2.20856        1.16380
C          4.59012       -1.89569        1.46929
C          4.87137       -0.71472        0.82836
O          3.77572       -0.28193        0.13915
H          2.70981       -3.06168        1.51557
H          5.25987       -2.46721        2.09091
H          5.81774       -0.18889        0.85671
C          0.76081       -2.72162       -1.08009
C          0.71710       -3.90123       -0.37819
C          0.42714       -4.91214       -1.29548
C          0.30669       -4.30581       -2.52174
O          0.50547       -2.95979       -2.40296
H          0.85854       -4.01465        0.68451
H          0.31905       -5.96315       -1.08275
H          0.08442       -4.80678       -3.45577
Fe         1.23861        2.16050       -0.91101
C          2.15221        2.03326        0.92557
C          0.84135        2.63333        1.04786
C          0.81374        3.84022        0.24365
C          2.11194        3.97655       -0.38978
C          2.94158        2.86519        0.03946
H          2.48238        1.11718        1.41882
H          0.05231        2.27024        1.70862
H         -0.01825        4.54246        0.15986
H          2.42228        4.79146       -1.04718
H          3.98071        2.68666       -0.24535
