105
-153.06421785
Cl         3.12374        0.83333       -1.64582
Pd         0.91085        0.91375       -1.23009
P         -1.44564        0.92675       -0.92290
N         -1.47319       -0.51644       -1.94883
C         -0.50036       -1.49384       -1.69317
C         -0.31666       -2.05224       -0.39825
C          0.68418       -3.01725       -0.18530
C          0.72299       -3.72654        1.15055
C          1.88390       -4.71957        1.34352
C          2.23955       -5.44365        0.04140
C          2.59954       -4.42693       -1.05079
C          1.53011       -3.38368       -1.23339
C          1.35102       -2.81653       -2.48936
C          0.34934       -1.91027       -2.72379
H          0.23109       -1.47487       -3.70033
H          2.00867       -3.10641       -3.29114
H          3.54121       -3.92609       -0.79856
H          3.05911       -6.15912        0.19937
H          2.76806       -4.18150        1.70086
H          0.73721       -2.97029        1.94431
C         -1.34082       -1.83951        0.65199
C         -1.11170       -0.99406        1.76376
C         -2.02396       -1.02172        2.81863
C         -3.14127       -1.81385        2.77605
C         -3.41194       -2.61206        1.67320
C         -4.67937       -3.43011        1.67806
C         -4.71720       -4.52874        0.60466
C         -4.20183       -3.99714       -0.73581
C         -2.75669       -3.49177       -0.60579
C         -2.51268       -2.62292        0.60498
H         -2.06765       -4.34372       -0.56979
H         -4.84536       -3.17365       -1.07025
H         -5.73199       -4.93753        0.49765
H         -5.53039       -2.75213        1.54218
H         -3.83874       -1.80401        3.59655
H         -1.85242       -0.38370        3.66824
N         -0.07681       -0.07199        1.85068
P          1.40597        0.31523        0.97614
C          2.65571       -0.88603        1.43520
C          2.63865       -1.36960        2.72231
C          3.62859       -2.23852        3.14702
C          4.64056       -2.63208        2.28146
C          4.65007       -2.12056        0.99128
C          3.66258       -1.24916        0.57401
H          3.68792       -0.82434       -0.41428
H          5.44270       -2.40118        0.31886
C          5.71357       -3.55904        2.73552
H          3.61873       -2.61768        4.15455
H          1.85093       -1.06306        3.39193
C          2.01216        1.87652        1.65584
C          2.67397        2.76594        0.84092
C          3.13078        3.96868        1.34427
C          2.93692        4.29291        2.67893
C          2.30035        3.37225        3.49906
C          1.84173        2.17059        2.98998
H          1.37424        1.45629        3.64622
H          2.16964        3.60102        4.54308
C          3.45164        5.57632        3.23156
H          3.65043        4.66036        0.70331
H          2.86529        2.50132       -0.18480
H         -0.02695        0.43617        2.72230
H         -1.49101       -0.16836       -2.89887
C         -1.62103        2.42816       -1.89291
C         -2.42997        2.44473       -3.00300
C         -2.56019        3.60952       -3.73756
C         -1.89023        4.76455       -3.35629
C         -1.08060        4.72631       -2.22895
C         -0.95185        3.56158       -1.49440
H         -0.32550        3.52929       -0.61623
H         -0.54771        5.61339       -1.93196
C         -2.00337        6.00922       -4.16586
H         -3.18200        3.62688       -4.61629
H         -2.95760        1.54979       -3.29101
C         -2.82597        0.95763        0.21473
C         -2.78214        1.74394        1.34097
C         -3.87549        1.78050        2.18775
C         -5.01916        1.04624        1.89935
C         -5.04475        0.26972        0.74852
C         -3.94969        0.23132       -0.09540
H         -3.95595       -0.37232       -0.98906
H         -5.92289       -0.31013        0.52147
C         -6.17909        1.05029        2.83266
H         -3.84414        2.37690        3.08347
H         -1.89101        2.31168        1.55800
Cl         0.59353        1.26355       -3.43735
H          2.78154       -4.93604       -2.00578
H          1.64690       -5.44334        2.13588
H          1.38113       -6.04253       -0.28801
H         -0.22841       -4.25618        1.27962
H         -4.27877       -4.76712       -1.51645
H         -2.48000       -2.92856       -1.50530
H         -4.81240       -3.86952        2.67500
H         -4.09217       -5.37220        0.92420
H          6.04573       -4.20379        1.92050
H          6.57833       -3.00223        3.09883
H          5.36326       -4.20250        3.54383
H          3.44180        6.36246        2.47527
H          2.84252        5.91663        4.07015
H          4.47731        5.46193        3.58489
H         -1.89350        6.89674       -3.54113
H         -1.23073        6.04121       -4.93521
H         -2.97378        6.07088       -4.66037
H         -7.11857        0.92274        2.29302
H         -6.09454        0.23933        3.55744
H         -6.23881        1.98982        3.38376
