105
-153.06767951
Cl         0.31636        2.98047        2.59869
Pd        -0.16335        1.84110        0.71360
P         -0.73611        0.49949       -1.15616
N          0.40644       -0.76271       -1.60256
C          0.49374       -2.15057       -1.41132
C         -0.03703       -2.83536       -0.28483
C          0.28425       -4.19455       -0.08331
C         -0.09745       -4.86166        1.21762
C          0.77635       -6.07944        1.54927
C          0.82037       -7.03814        0.35562
C          1.40127       -6.34680       -0.88996
C          1.03160       -4.88898       -1.03826
C          1.50736       -4.20743       -2.15150
C          1.26736       -2.86891       -2.32134
H          1.67772       -2.34741       -3.16886
H          2.10029       -4.74213       -2.87435
H          2.49530       -6.42134       -0.87078
H          1.39286       -7.94281        0.60433
H          1.79400       -5.74286        1.78366
H         -0.04481       -4.12540        2.02955
C         -0.73359       -2.08968        0.79105
C          0.02379       -1.17218        1.55868
C         -0.58747       -0.51316        2.62363
C         -1.90239       -0.75218        2.92949
C         -2.66410       -1.65521        2.19501
C         -4.09598       -1.88913        2.62337
C         -4.90325       -2.86827        1.74724
C         -4.00759       -3.94810        1.12970
C         -2.90116       -3.28617        0.29963
C         -2.07899       -2.32729        1.11890
H         -2.26413       -4.03316       -0.18611
H         -4.59221       -4.65388        0.52290
H         -5.39888       -2.31399        0.94094
H         -4.60548       -0.91830        2.66850
H         -2.36307       -0.23164        3.75190
H         -0.01666        0.20420        3.18572
N          1.34660       -0.91503        1.19933
P          1.87832        0.75401        1.06243
C          2.73185        0.99316       -0.49537
C          2.42955        2.08714       -1.27187
C          2.94580        2.18390       -2.55015
C          3.76739        1.18764       -3.05790
C          4.07100        0.09730       -2.25412
C          3.55931        0.00330       -0.97240
H          3.77404       -0.85541       -0.35582
H          4.70035       -0.68501       -2.64305
C          4.27246        1.26556       -4.45637
H          2.69323        3.02643       -3.17123
H          1.77217        2.85226       -0.89052
C          2.85334        1.28780        2.45966
C          2.90536        0.48620        3.57395
C          3.63785        0.88981        4.67608
C          4.31417        2.10288        4.66658
C          4.25490        2.89297        3.52585
C          3.52236        2.48721        2.42472
H          3.46408        3.10199        1.54039
H          4.78392        3.83044        3.50645
C          5.12074        2.53248        5.84239
H          3.68737        0.26420        5.55081
H          2.37598       -0.45327        3.57131
H          1.65120       -1.36157        0.34172
H          1.25820       -0.26864       -1.84245
C         -0.62195        1.71715       -2.47318
C         -1.09476        2.99606       -2.30291
C         -0.97820        3.91706       -3.32612
C         -0.39879        3.55892       -4.53596
C          0.06493        2.26014       -4.69495
C         -0.05294        1.34188       -3.66720
H          0.30518        0.33271       -3.78905
H          0.52470        1.97392       -5.62542
C         -0.23972        4.55917       -5.62748
H         -1.33597        4.92328       -3.18973
H         -1.55495        3.26627       -1.36746
C         -2.39060       -0.17370       -1.31006
C         -2.59193       -1.06932       -2.33435
C         -3.86089       -1.56494       -2.58140
C         -4.93602       -1.16985       -1.79711
C         -4.71636       -0.25223       -0.77832
C         -3.44992        0.24671       -0.54261
H         -3.28904        0.99085        0.21719
H         -5.54594        0.07944       -0.17762
C         -6.29839       -1.70871       -2.06268
H         -4.02174       -2.26709       -3.38146
H         -1.75163       -1.37459       -2.93821
Cl        -2.21543        2.75533        0.71704
H          1.09001       -6.87902       -1.79785
H          0.41653       -6.59074        2.45338
H         -0.19717       -7.38684        0.13803
H         -1.14534       -5.17573        1.17076
H         -3.55370       -4.54543        1.93009
H         -3.35733       -2.72933       -0.52276
H         -4.08173       -2.25562        3.65694
H         -5.71807       -3.32598        2.32538
H          5.22884        0.75110       -4.55961
H          3.56558        0.80548       -5.14834
H          4.41868        2.30173       -4.76470
H          5.09860        3.61702        5.95846
H          4.73793        2.09377        6.76495
H          6.16189        2.22655        5.73071
H          0.71876        5.07339       -5.54431
H         -0.28202        4.08222       -6.60768
H         -1.02945        5.31086       -5.59120
H         -6.71476       -1.27752       -2.97406
H         -6.27173       -2.79268       -2.18356
H         -6.98184       -1.48364       -1.24278
