59
-75.80011389
Cl         1.49142        0.78991        2.34013
P          1.59706       -0.11785       -0.78939
P         -1.56730       -0.22092       -0.85422
C          0.66042        0.35388       -2.31044
H          0.42206        1.41866       -2.23847
H          1.31127        0.21774       -3.17984
C         -0.59388       -0.46945       -2.40178
H         -0.35761       -1.53069       -2.50223
H         -1.21488       -0.19219       -3.25919
C          2.35331       -1.79096       -1.04775
H          1.81680       -2.21963       -1.90416
C          3.16085        0.85558       -0.63938
H          3.45494        0.80832        0.41609
C         -2.83966       -1.51658       -0.47410
H         -2.72523       -1.74287        0.59323
C         -2.66926        1.25891       -1.03270
H         -2.72422        1.47427       -2.10681
C          3.82307       -1.49415       -1.43058
H          4.48862       -1.96674       -0.69763
H          4.07309       -1.98055       -2.38524
C          4.12960        0.03038       -1.50478
H          4.04151        0.37429       -2.54536
H          5.17174        0.23763       -1.21619
C         -4.17047       -0.78330       -0.72196
H         -4.50036       -0.98750       -1.74996
H         -4.95935       -1.19236       -0.07246
C         -4.02673        0.74936       -0.52016
H         -4.11130        0.98552        0.54957
H         -4.85131        1.28955       -1.00976
C          2.18685       -2.68120        0.18387
H          2.54981       -3.69140       -0.05205
H          1.11564       -2.79930        0.39430
C          3.00550        2.30802       -1.07247
H          3.99887        2.77515       -1.12493
H          2.62141        2.33482       -2.10028
C         -2.67429       -2.79044       -1.29632
H         -3.58537       -3.39753       -1.20043
H         -2.61827       -2.52181       -2.35922
C         -2.12635        2.46933       -0.28389
H         -2.04476        2.22011        0.78211
H         -1.09812        2.66402       -0.61585
C          2.88496       -2.16655        1.43497
H          2.56004       -1.15654        1.68135
H          3.96852       -2.13204        1.31628
H          2.67763       -2.79427        2.30471
C          2.10254        3.10718       -0.14637
H          2.49731        3.12364        0.87121
H          1.10650        2.66770       -0.09098
H          1.98824        4.14299       -0.47369
C         -1.46323       -3.61272       -0.88631
H         -1.35938       -4.51949       -1.48659
H         -1.52848       -3.91653        0.16026
H         -0.54192       -3.04183       -0.99511
C         -2.97748        3.71657       -0.46758
H         -2.56427        4.57614        0.06510
H         -3.05486        3.98891       -1.52187
H         -3.99327        3.56156       -0.09966
Cl        -1.74401        0.13200        2.29517
Pd        -0.03018        0.09638        0.84794
