171
-217.83538375
P         -1.70443        0.66340        0.24084
P          1.49264       -0.21259       -0.31054
C         -0.98821        1.78044       -0.98953
C          0.58693       -0.91863       -1.70447
C         -0.31463        1.36123       -2.13129
C          0.30282        2.32672       -2.94807
C          0.18674        3.66679       -2.62029
C         -0.49405        4.06634       -1.49051
C         -1.06777        3.11536       -0.66878
C          0.68154       -2.25669       -2.00265
C         -0.00800       -2.78449       -3.07616
C         -0.81446       -1.96735       -3.83929
C         -0.95541       -0.62320       -3.53759
C         -0.22184       -0.08230       -2.46379
Cl         2.09989        1.38316        2.56252
Cl        -0.85194        0.70361        3.48370
C         -1.86733        0.22681       -4.35183
C          1.09373        1.94181       -4.14927
H         -0.56876        5.11249       -1.24236
H         -1.57756        3.41135        0.23622
H          1.27522       -2.90187       -1.38000
H          0.07644       -3.83283       -3.31157
H          0.64638        4.40048       -3.26076
H         -1.34803       -2.37317       -4.68175
C         -2.74352       -3.62157       -0.80415
C         -1.68886       -3.40180        0.07263
C         -1.36650       -2.08605        0.38264
C         -2.06027       -1.04561       -0.19208
C         -3.10082       -1.28430       -1.05583
C         -3.46947       -2.58514       -1.37551
H         -3.02056       -4.63341       -1.03604
H         -0.56955       -1.86701        1.07000
H         -3.63276       -0.44418       -1.46691
C         -5.61892        2.53593        1.55767
C         -5.30021        2.49681        0.20459
C         -4.09071        1.92029       -0.16169
C         -3.24093        1.41241        0.78978
C         -3.57069        1.46372        2.11895
C         -4.76922        2.02597        2.53301
H         -6.54848        2.97858        1.85935
H         -3.80007        1.87920       -1.19855
H         -2.87152        1.08156        2.84035
C          3.92483       -3.49924        1.71637
C          3.17277       -2.64650        2.51217
C          2.44416       -1.64707        1.88317
C          2.46523       -1.50057        0.51629
C          3.24464       -2.33736       -0.24648
C          3.97684       -3.36462        0.33474
H          4.48987       -4.27793        2.19293
H          1.87019       -0.96137        2.47505
H          3.27503       -2.20086       -1.31345
C          4.35023        2.91903       -1.90996
C          3.48853        3.26916       -0.87832
C          2.62799        2.29408       -0.39223
C          2.63800        1.02627       -0.91716
C          3.49414        0.69868       -1.93924
C          4.37077        1.64252       -2.45994
H          5.02645        3.66437       -2.28405
H          1.94421        2.51772        0.40636
H          3.47365       -0.29981       -2.34010
Pd         0.24468        0.66218        1.51440
C          0.24983       -4.15978        1.53630
C         -0.96405       -4.60154        0.70083
C         -0.46163       -5.54863       -0.40600
C         -1.94438       -5.35229        1.61935
H          0.96259       -3.61346        0.92166
H         -0.05143       -3.52329        2.36780
H          0.76845       -5.02400        1.95054
H         -1.28462       -5.94178       -1.00103
H          0.22045       -5.03003       -1.07806
H          0.07226       -6.39704        0.02181
H         -1.45970       -6.20528        2.09402
H         -2.31553       -4.69409        2.40476
H         -2.80283       -5.72267        1.05995
C         -4.16863       -3.68123       -3.52287
C         -4.66024       -2.89880       -2.29255
C         -5.35841       -1.61264       -2.77504
C         -5.68779       -3.74443       -1.51704
H         -3.68121       -4.61127       -3.23272
H         -4.99861       -3.93031       -4.18386
H         -3.45253       -3.09073       -4.09199
H         -5.74032       -1.03790       -1.93174
H         -4.67432       -0.98236       -3.34210
H         -6.20239       -1.84916       -3.42282
H         -6.56051       -3.95961       -2.13339
H         -5.26155       -4.69564       -1.20067
H         -6.02590       -3.21596       -0.62583
C         -6.58287        1.96391       -1.88458
C         -6.21431        3.07582       -0.88474
C         -5.46856        4.20549       -1.61951
C         -7.51560        3.65097       -0.29342
H         -5.69711        1.56535       -2.37777
H         -7.08420        1.14052       -1.37626
H         -7.25200        2.34055       -2.65800
H         -6.09631        4.65023       -2.39145
H         -5.18014        4.99258       -0.92306
H         -4.56259        3.83555       -2.09849
H         -8.15403        4.05127       -1.08096
H         -8.08190        2.88124        0.23065
H         -7.30547        4.46211        0.40347
C         -5.10991        0.63963        4.59406
C         -5.09485        2.07381        4.03276
C         -6.46874        2.71784        4.29978
C         -4.01656        2.90084        4.75778
H         -4.13895        0.15933        4.47886
H         -5.35771        0.63850        5.65533
H         -5.84849        0.03032        4.07359
H         -6.68513        2.73766        5.36786
H         -6.49716        3.74593        3.93929
H         -7.26613        2.15716        3.81231
H         -3.97340        3.91312        4.35654
H         -4.22814        2.96850        5.82467
H         -3.03007        2.45344        4.64186
C          2.23273       -1.80053        4.72320
C          3.19187       -2.79733        4.04076
C          4.61922       -2.52939        4.55049
C          2.76161       -4.22384        4.42974
H          2.52301       -0.77040        4.51794
H          1.20791       -1.94430        4.38141
H          2.24159       -1.93370        5.80473
H          5.32849       -3.24062        4.12853
H          4.94426       -1.52720        4.27164
H          4.66843       -2.61103        5.63615
H          1.75067       -4.43091        4.08118
H          3.42570       -4.97248        3.99987
H          2.77429       -4.35166        5.51202
C          5.70369       -3.54307       -1.48435
C          4.75845       -4.33559       -0.56180
C          3.75876       -5.13930       -1.41381
C          5.60393       -5.32138        0.26737
H          6.37599       -2.91516       -0.89998
H          6.31064       -4.21526       -2.09067
H          5.14684       -2.90021       -2.16437
H          3.17278       -4.48315       -2.05655
H          4.27603       -5.85639       -2.05090
H          3.06572       -5.68964       -0.77757
H          6.31223       -4.79027        0.90306
H          4.97304       -5.94732        0.89814
H          6.17486       -5.98348       -0.38354
C          4.92364        4.94696        0.30492
C          3.52736        4.68609       -0.28865
C          2.48163        4.86393        0.83041
C          3.23373        5.71252       -1.39755
H          4.97884        5.93961        0.75141
H          5.15423        4.21497        1.07873
H          5.69725        4.88109       -0.45923
H          2.66664        4.17417        1.65362
H          2.51506        5.87547        1.23449
H          1.47303        4.69131        0.45645
H          3.97119        5.65565       -2.19720
H          2.25178        5.53616       -1.83439
H          3.24820        6.72807       -1.00229
C          4.59558        0.57046       -4.72913
C          5.35645        1.23319       -3.56431
C          6.36921        0.23458       -2.97674
C          6.12465        2.44744       -4.12102
H          3.86434        1.25717       -5.15370
H          5.28142        0.27964       -5.52468
H          4.06819       -0.32585       -4.40560
H          6.91931        0.68456       -2.15053
H          5.86587       -0.65315       -2.59673
H          7.08929       -0.08330       -3.73051
H          6.78925        2.14617       -4.93069
H          5.43816        3.19607       -4.51637
H          6.73885        2.91284       -3.35052
H         -2.72285       -0.34724       -4.71071
H          1.33013        0.87697       -4.14848
H         -1.34946        0.63237       -5.22181
H         -2.25441        1.06289       -3.76718
H          2.03762        2.48840       -4.17765
H          0.54774        2.16802       -5.06613
