111
-148.55420100
P         -2.75567        1.78492       -0.39352
P          0.13064        0.62098        0.15003
C         -1.86759        2.25746        1.11545
C         -0.58340        1.79883        1.31495
C         -3.77317        3.18683       -1.04671
C         -3.10485        3.87216       -2.21849
C         -2.46230        3.06960        2.06003
H         -3.47337        3.41069        1.91013
C         -1.76274        3.42683        3.19992
H         -2.22627        4.06113        3.93778
C         -0.47320        2.97026        3.39445
H          0.07001        3.24591        4.28334
C          0.11650        2.14868        2.45095
H          1.11471        1.76718        2.59693
Pd        -1.17645        0.79915       -1.76481
Cl        -2.71640        0.87299       -3.39136
Cl         0.47986       -0.23391       -2.87416
C         -5.11445        2.50460       -1.37152
C         -4.07445        0.50916       -0.14233
H         -2.12507        4.26757       -1.94039
H         -2.95372        3.17478       -3.04305
H         -3.71064        4.69950       -2.59528
H         -5.09387        2.16770       -2.41720
H         -5.93988        3.23022       -1.30998
H         -3.90335       -0.25754       -0.90997
C         -5.37193        1.28540       -0.43989
C         -4.00725       -0.09438        1.24371
H         -3.90029        3.89138       -0.21512
H         -5.79936        1.63570        0.50965
H         -6.12861        0.61389       -0.87318
H         -4.10716        0.67836        2.00813
H         -4.80469       -0.82426        1.40136
H         -3.05297       -0.59750        1.40939
C         -1.21735       -3.53268        1.44444
C         -0.79146       -3.31302        0.10971
C         -0.38558       -2.03910       -0.24456
C         -0.33614       -1.02770        0.67678
C         -0.63572       -1.26318        1.99266
C         -1.04017       -2.51694        2.41892
O         -1.86089       -4.74952        1.79362
C         -0.81234       -4.41217       -0.96287
H         -0.11606       -1.80712       -1.25962
H         -0.56921       -0.44295        2.68553
C         -1.31554       -2.74198        3.91345
C          4.66841        0.93647       -0.04206
C          3.88225        1.55636       -1.04730
C          2.50289        1.47672       -0.94569
C          1.91113        0.74606        0.05033
C          2.66757        0.05532        0.96104
C          4.05111        0.10124        0.92352
O          6.06759        1.17433        0.01573
C          4.50204        2.30821       -2.23594
H          1.86682        1.97720       -1.65518
H          2.15574       -0.52842        1.70685
C          4.85495       -0.73442        1.93202
C         -0.55734       -5.79823       -0.34393
C         -2.17089       -4.39180       -1.67999
C          0.30093       -4.17302       -2.00861
C         -1.03508       -4.20087        4.31691
C         -0.39105       -1.85162        4.77509
C         -2.77576       -2.37789        4.22243
C         -3.27468       -4.71672        1.64228
H         -1.34840       -6.07526        0.34839
H         -0.50843       -6.56818       -1.11351
H          0.38412       -5.80603        0.20431
H         -2.34540       -3.42221       -2.14614
H         -2.21327       -5.15325       -2.45825
H         -2.98640       -4.57571       -0.98453
H          0.10547       -3.28756       -2.61152
H          1.26870       -4.05028       -1.52313
H          0.37483       -5.01621       -2.69490
H         -1.16572       -4.34308        5.38939
H         -1.70689       -4.88902        3.81009
H         -0.01403       -4.48044        4.05939
H         -0.49059       -2.09924        5.83168
H          0.65274       -1.99206        4.49514
H         -0.63486       -0.79543        4.67057
H         -3.46515       -2.98391        3.63921
H         -3.00147       -2.53142        5.27735
H         -2.97099       -1.33236        3.98525
H         -3.75051       -4.91534        2.60245
H         -3.59557       -3.74196        1.27247
H         -3.58541       -5.49112        0.94113
C          6.43227        2.30499        0.79708
C          5.85279        1.68920       -2.63927
C          3.58054        2.22004       -3.47437
C          4.68673        3.78711       -1.86476
C          6.18765       -1.20495        1.32176
C          5.11575        0.10291        3.19311
C          4.07125       -2.00427        2.33733
H          5.73728        0.62870       -2.86061
H          6.25979        2.17830       -3.52390
H          6.58704        1.78548       -1.84335
H          3.31835        1.18436       -3.68913
H          2.65954        2.78347       -3.33320
H          4.07427        2.63040       -4.35488
H          5.34700        3.89912       -1.00813
H          5.11501        4.34747       -2.69544
H          3.73048        4.24216       -1.60776
H          6.83378       -0.36354        1.08386
H          6.72885       -1.85105        2.01250
H          6.01261       -1.76220        0.40208
H          4.17649        0.41470        3.64951
H          5.67710       -0.46843        3.93198
H          5.68393        1.00014        2.95988
H          3.75519       -2.56273        1.45655
H          3.18730       -1.76256        2.92579
H          4.68987       -2.66264        2.94677
H          7.09365        1.99250        1.60501
H          6.96960        3.02115        0.17567
H          5.54473        2.78048        1.21643
