100
-131.98175127
C         -1.62910        3.79265       -1.48033
C         -2.36509        2.52456       -1.50585
C         -0.23795        3.50801       -1.54773
C         -0.04019        2.03609       -1.62285
C          1.12840        1.43869       -2.32756
C         -1.42039        1.44701       -1.58396
C         -1.82980        0.04206       -1.99732
C         -0.88761       -0.66636       -2.94826
Cl         0.91329       -0.40721        2.83308
Cl        -1.79125       -1.91395        2.31497
C          3.24194        0.39515       -3.83936
C          2.51386        1.46373       -4.32451
C          2.93210       -0.14223       -2.59832
C          1.48337        1.98213       -3.58135
C          1.88717        0.34882       -1.85168
H         -3.44950        2.42212       -1.57327
H          0.55763        4.25074       -1.64241
H          0.03229       -0.94975       -2.43752
H         -1.32907       -1.58205       -3.34899
H         -0.62200       -0.02859       -3.79487
H          4.05987       -0.00793       -4.41387
H          2.75682        1.89067       -5.28410
H          3.54381       -0.93877       -2.20864
H          0.91015        2.81013       -3.96152
H         -2.07815        4.78921       -1.48258
P          1.73173       -0.30241       -0.17136
H         -2.81275        0.12096       -2.47907
P         -2.12767       -0.98960       -0.50811
H         -3.41295       -3.01188       -0.30358
C         -1.65702       -3.71650       -1.31528
C         -2.71982       -2.64700       -1.06218
C         -1.19472       -4.35463       -0.00262
H         -3.15802        0.80529        0.63712
C         -4.87159       -0.06507       -0.32494
C         -3.52312       -0.19171        0.40213
H         -4.66448        0.18954       -1.37880
C         -5.68331       -1.36312       -0.29808
H          3.58943       -1.81553       -0.38366
H          2.50480        0.79276        1.84714
C          3.51185        3.27375        1.16656
C          2.68867        2.29572        0.30906
C          2.83923        0.85146        0.80635
C          4.32461        0.45307        0.76336
C          5.18617        1.41780        1.60485
C          5.00004        2.87824        1.15066
H          3.13984        3.25340        2.19839
H          3.37398        4.30842        0.82261
H          3.04415        2.34519       -0.72761
H          1.63296        2.58228        0.26234
H          4.46474       -0.57875        1.10723
H          4.66365        0.46740       -0.27923
H          4.90112        1.32801        2.66054
H          6.24578        1.12899        1.56242
H          5.39646        2.99597        0.13426
H          5.59149        3.56063        1.77745
C          2.68822       -4.30850       -1.05794
C          1.92095       -2.97051       -1.05765
C          2.54922       -1.97651       -0.07875
C          2.56454       -2.57195        1.33771
C          3.35827       -3.89222        1.36452
C          2.76924       -4.90494        0.36246
H          3.70266       -4.14380       -1.44162
H          2.22323       -5.02065       -1.75402
H          0.89042       -3.14207       -0.74029
H          1.85391       -2.54328       -2.06708
H          2.95452       -1.84872        2.06554
H          1.53403       -2.76902        1.65413
H          4.40554       -3.69148        1.10687
H          3.38034       -4.31243        2.37977
H          1.76611       -5.19887        0.69399
H          3.35781       -5.83331        0.35928
H         -0.80102       -3.22054       -1.80215
C         -2.17956       -4.79239       -2.27245
H         -3.65672       -0.71009        1.35153
C         -5.69543        1.07735        0.28038
H         -3.30031       -2.46767       -1.96926
H         -0.80601       -3.61553        0.69704
H         -0.42145       -5.10453       -0.17324
H         -2.02722       -4.85575        0.49197
H         -1.42150       -5.55152       -2.47192
H         -3.04674       -5.29710       -1.84542
H         -2.48539       -4.36519       -3.22890
H         -5.21455       -2.16090       -0.87084
H         -5.81107       -1.71682        0.72545
H         -6.67959       -1.21279       -0.71730
H         -6.65605        1.18973       -0.22469
H         -5.89801        0.88628        1.33466
H         -5.17253        2.03210        0.21325
Fe        -1.06625        2.64250        0.09175
C         -2.43613        3.05994        1.59785
C         -1.60965        4.22342        1.33743
C         -0.22450        3.84101        1.53231
C         -0.20493        2.44655        1.92938
C         -1.56910        1.96833        1.99512
H         -3.52789        3.04322        1.59568
H         -1.96896        5.22025        1.07228
H          0.64081        4.50333        1.45235
H          0.66522        1.87916        2.25843
H         -1.87261        0.98047        2.34882
Pd        -0.28212       -0.89886        0.96670
