111
-148.55272175
P         -2.53501        2.06403        0.57047
P          0.12349        0.34447        0.39950
C         -1.56190        1.73963        2.07128
C         -0.38632        1.02715        1.98394
C         -3.42577        3.67885        0.75878
C         -3.22535        4.57508       -0.44285
C         -1.99296        2.19930        3.30016
H         -2.92358        2.73727        3.37285
C         -1.23676        1.95539        4.43363
H         -1.57314        2.31657        5.39179
C         -0.05370        1.24846        4.33924
H          0.53499        1.05775        5.22143
C          0.36987        0.77716        3.10986
H          1.28504        0.21304        3.02010
Pd        -1.10485        1.51160       -1.17242
Cl        -2.63418        2.39345       -2.55220
Cl         0.46155        1.14318       -2.73105
C         -4.88913        3.23664        0.96971
C         -3.97014        0.91025        0.38874
H         -3.64498        4.11471       -1.33826
H         -3.71736        5.54152       -0.31018
H         -2.16479        4.75675       -0.63142
H         -5.56602        4.00942        0.57682
H         -5.10967        3.17006        2.04524
H         -3.82481        0.37252       -0.55795
C         -5.17958        1.86384        0.29980
C         -4.02921       -0.06299        1.54685
H         -3.02169        4.16229        1.65814
H         -6.05743        1.38655        0.75911
H         -5.44888        2.02549       -0.75441
H         -4.13948        0.47141        2.49225
H         -4.87497       -0.74832        1.45317
H         -3.11631       -0.66022        1.61176
C         -1.35221       -3.96861        0.31857
C         -1.86191       -3.03643       -0.62003
C         -1.39795       -1.73380       -0.56765
C         -0.42013       -1.36234        0.31796
C          0.14907       -2.28414        1.15731
C         -0.26619       -3.60606        1.15553
O         -1.95040       -5.25087        0.44335
C         -2.92241       -3.40783       -1.66876
H         -1.80666       -0.98943       -1.22597
H          0.92301       -1.95149        1.82718
C          0.43593       -4.61352        2.07955
C          4.57454        0.78509       -0.45578
C          3.88979       -0.39334       -0.85451
C          2.53437       -0.48527       -0.58487
C          1.88271        0.49484        0.11645
C          2.56316        1.57982        0.60387
C          3.92142        1.73266        0.37692
O          5.87551        1.05327       -0.95353
C          4.56159       -1.57983       -1.56596
H          1.96319       -1.32662       -0.93959
H          2.01549        2.31917        1.16372
C          4.63645        2.91314        1.05605
C         -2.76340       -4.87048       -2.12156
C         -4.32347       -3.18350       -1.07996
C         -2.77441       -2.52695       -2.93111
C          0.44285       -6.02289        1.45985
C          1.91239       -4.21503        2.30211
C         -0.27547       -4.63571        3.44084
C         -3.02304       -5.30254        1.37571
H         -3.47329       -5.11587       -2.91105
H         -1.75800       -5.04663       -2.50251
H         -2.93405       -5.56128       -1.29968
H         -4.48092       -3.79031       -0.19172
H         -4.45971       -2.14038       -0.79681
H         -5.09656       -3.43919       -1.80407
H         -3.03982       -1.48937       -2.73378
H         -1.75147       -2.55419       -3.30555
H         -3.43145       -2.87751       -3.72662
H          0.99759       -6.72287        2.08416
H         -0.56592       -6.41200        1.34679
H          0.90688       -6.00606        0.47422
H          2.44286       -4.98959        2.85554
H          2.42251       -4.07661        1.34976
H          2.00088       -3.29450        2.87703
H         -0.25765       -3.64786        3.90074
H         -1.31612       -4.93314        3.33723
H          0.20801       -5.33471        4.12282
H         -3.93358       -5.62110        0.86855
H         -2.79581       -6.03059        2.15423
H         -3.18185       -4.32297        1.82853
C          5.85666        1.76633       -2.17893
C          4.13032       -1.59882       -3.04179
C          6.09662       -1.52417       -1.47820
C          4.11984       -2.89835       -0.89305
C          4.20344        2.99157        2.53717
C          6.16700        2.75545        1.04431
C          4.24867        4.22201        0.34866
H          4.57083       -2.44662       -3.56574
H          3.04703       -1.67513       -3.12978
H          4.44019       -0.68996       -3.55382
H          6.54723       -2.42146       -1.90173
H          6.49208       -0.66986       -2.02235
H          6.41933       -1.43815       -0.44121
H          3.05184       -3.07497       -1.00917
H          4.63837       -3.75091       -1.33087
H          4.34626       -2.87871        0.17258
H          3.14390        3.22034        2.63860
H          4.39401        2.04588        3.04383
H          4.75475        3.77123        3.06218
H          6.55966        2.79255        0.03096
H          6.64835        3.55058        1.61320
H          6.45826        1.80059        1.48051
H          4.72315        5.07851        0.82688
H          3.17043        4.37573        0.37802
H          4.55320        4.21023       -0.69598
H          5.30663        1.20257       -2.93059
H          5.37225        2.73158       -2.04222
H          6.88016        1.92165       -2.52078
