171
-217.84700046
P         -1.58740        0.37424       -0.33392
P          1.60637       -0.47311       -0.29891
C         -0.84312        1.28121       -1.69261
C          0.87371       -1.45157       -1.61650
C         -0.07136        0.62512       -2.64458
C          0.55213        1.38623       -3.65201
C          0.35333        2.75658       -3.68574
C         -0.43414        3.38478       -2.74411
C         -1.02536        2.64141       -1.74131
C          1.04626       -2.81398       -1.58147
C          0.43625       -3.61731       -2.52436
C         -0.36023       -3.04583       -3.49377
C         -0.54818       -1.67472       -3.54711
C          0.09289       -0.85357       -2.59955
Cl         1.53775        0.24125        2.90876
Cl        -1.63460       -0.55151        2.83583
C         -1.42288       -1.09999       -4.60595
C          1.40296        0.74278       -4.69058
H         -0.58743        4.45051       -2.78989
H         -1.63326        3.12302       -0.99214
H          1.66108       -3.25339       -0.81307
H          0.57825       -4.68530       -2.49756
H          0.82538        3.33336       -4.46319
H         -0.85089       -3.66829       -4.22301
C         -3.93489       -3.27128       -1.61398
C         -2.94517       -3.41277       -0.64976
C         -2.23862       -2.27732       -0.27591
C         -2.49861       -1.06914       -0.87243
C         -3.46385       -0.94947       -1.84208
C         -4.21173       -2.05604       -2.22822
H         -4.52246       -4.13053       -1.87960
H         -1.48683       -2.32287        0.49245
H         -3.63140        0.01665       -2.28690
C         -4.26795        3.10117        2.10926
C         -4.85292        2.16383        1.26753
C         -4.01156        1.33836        0.53318
C         -2.64816        1.46395        0.63180
C         -2.08786        2.39844        1.46801
C         -2.89082        3.22450        2.24384
H         -4.90538        3.75286        2.67765
H         -4.41522        0.58403       -0.11754
H         -1.01570        2.46859        1.52298
C          4.50054       -2.86007        2.25314
C          3.15356       -3.20596        2.27129
C          2.28578       -2.48756        1.45955
C          2.74879       -1.45584        0.68216
C          4.07874       -1.11858        0.68796
C          4.98590       -1.81783        1.47128
H          5.18614       -3.40941        2.86888
H          1.23429       -2.72006        1.44934
H          4.41181       -0.29015        0.08744
C          3.78390        3.29742       -1.51538
C          2.82015        3.36979       -0.51675
C          2.14072        2.20493       -0.18829
C          2.41802        1.02825       -0.83804
C          3.37493        0.97057       -1.82099
C          4.08312        2.11245       -2.17760
H          4.33617        4.18054       -1.77580
H          1.40537        2.20895        0.59793
H          3.57537        0.02236       -2.29021
Pd        -0.02434       -0.08553        1.33141
C         -2.46571       -5.83999       -1.09121
C         -2.69041       -4.77822        0.00211
C         -3.91039       -5.16154        0.85722
C         -1.44208       -4.74543        0.90539
H         -1.63418       -5.55784       -1.73590
H         -2.23660       -6.81015       -0.65064
H         -3.34838       -5.96173       -1.71749
H         -3.75915       -6.12460        1.34447
H         -4.08694       -4.41459        1.63101
H         -4.81098       -5.23074        0.24784
H         -0.56444       -4.43573        0.33894
H         -1.57623       -4.05752        1.73980
H         -1.23948       -5.73139        1.32328
C         -5.19552       -3.02615       -4.33519
C         -5.36257       -1.95502       -3.23996
C         -5.40385       -0.57057       -3.91630
C         -6.69416       -2.18015       -2.50122
H         -5.23778       -4.03209       -3.91999
H         -5.98583       -2.94477       -5.08130
H         -4.24010       -2.91551       -4.84591
H         -5.58732        0.21863       -3.18769
H         -4.46671       -0.35557       -4.42872
H         -6.20355       -0.52512       -4.65544
H         -6.72344       -3.16475       -2.03552
H         -6.83024       -1.43620       -1.71692
H         -7.53867       -2.10730       -3.18626
C         -6.96195        3.39747        0.70035
C         -6.38189        2.05517        1.18206
C         -6.94403        1.71379        2.57417
C         -6.81837        0.95309        0.19634
H         -6.55486        3.66436       -0.27479
H         -8.04677        3.34366        0.61022
H         -6.72500        4.20346        1.39385
H         -8.02826        1.60788        2.54224
H         -6.52328        0.77689        2.93879
H         -6.70607        2.49134        3.29905
H         -7.90507        0.88747        0.14485
H         -6.45270        1.15974       -0.80926
H         -6.44383       -0.02186        0.50788
C         -2.50059        5.66474        2.62957
C         -2.29552        4.25654        3.21240
C         -0.78786        4.01989        3.43155
C         -2.99378        4.15098        4.58245
H         -2.08481        6.42574        3.28971
H         -2.01216        5.75470        1.65932
H         -3.55987        5.87996        2.49155
H         -0.59837        3.00576        3.78332
H         -0.22842        4.17582        2.51145
H         -0.38997        4.71083        4.17453
H         -2.54235        4.83328        5.30252
H         -4.05185        4.39940        4.51466
H         -2.90950        3.13912        4.97843
C          2.12915       -5.48788        2.23328
C          2.59804       -4.34015        3.14409
C          1.40902       -3.81364        3.97295
C          3.66101       -4.88387        4.11808
H          1.70978       -6.30617        2.81834
H          1.36568       -5.14677        1.53608
H          2.96096       -5.88037        1.64866
H          1.71177       -2.96058        4.57971
H          0.58626       -3.49279        3.33584
H          1.02659       -4.58533        4.64063
H          4.04118       -4.09166        4.76284
H          3.23846       -5.65836        4.75809
H          4.49957       -5.32586        3.58053
C          7.31821       -2.28175        2.38201
C          6.46222       -1.39699        1.45601
C          6.57467        0.06396        1.93171
C          7.00912       -1.51602        0.02103
H          8.36263       -1.97103        2.35634
H          6.97900       -2.21129        3.41531
H          7.27733       -3.32642        2.07417
H          6.16466        0.17385        2.93542
H          7.61471        0.38885        1.95317
H          6.02872        0.73866        1.27309
H          6.91624       -2.53910       -0.34276
H          6.46588       -0.86705       -0.66481
H          8.06175       -1.23664       -0.02007
C          3.41642        5.82466       -0.19155
C          2.50981        4.66110        0.25284
C          2.73407        4.41762        1.75777
C          1.04525        5.06054        0.00067
H          3.18721        6.72931        0.37155
H          4.46725        5.58874       -0.02438
H          3.27587        6.05038       -1.24846
H          3.76687        4.12774        1.94982
H          2.52257        5.31740        2.33514
H          2.09249        3.62193        2.13335
H          0.77573        5.94688        0.57469
H          0.88592        5.28139       -1.05399
H          0.36360        4.25841        0.27845
C          4.94553        3.12861       -4.30929
C          5.21769        2.08300       -3.21152
C          5.34798        0.69823       -3.87578
C          6.54596        2.40888       -2.50371
H          3.98929        2.94017       -4.79557
H          4.91808        4.13761       -3.90003
H          5.72265        3.10235       -5.07298
H          5.58862       -0.06934       -3.14058
H          4.42519        0.41490       -4.38036
H          6.14420        0.70005       -4.62007
H          6.52038        3.40076       -2.05376
H          6.74677        1.68813       -1.71116
H          7.37959        2.38100       -3.20518
H         -2.34062       -1.67954       -4.70459
H          1.78851       -0.21887       -4.34907
H         -0.91929       -1.10540       -5.57356
H         -1.70680       -0.07204       -4.37685
H          2.25799        1.37203       -4.93845
H          0.83753        0.57450       -5.60799
