111
-148.55228747
P         -2.13777        2.21975        1.44123
P          0.13952        0.23691        0.48002
C         -1.04990        1.44598        2.66180
C         -0.08947        0.55253        2.24225
C         -2.29070        4.03757        1.73599
C         -1.98260        4.79910        0.46519
C         -1.19972        1.71837        4.00646
H         -1.94132        2.43265        4.32521
C         -0.39850        1.07370        4.93294
H         -0.51554        1.28390        5.98352
C          0.54283        0.15375        4.51291
H          1.15920       -0.35705        5.23429
C          0.69549       -0.10983        3.16352
H          1.41832       -0.83413        2.82129
Pd        -1.51028        1.44369       -0.63885
Cl        -3.36342        2.35766       -1.51406
Cl        -0.83368        0.53167       -2.57707
C         -3.74662        4.19327        2.22184
C         -3.91241        1.70805        1.61264
H         -2.67465        4.51361       -0.32949
H         -2.07328        5.87820        0.61147
H         -0.97046        4.58877        0.11062
H         -4.13240        5.17659        1.91550
H         -3.77681        4.19303        3.32134
H         -4.16762        1.16658        0.69166
C         -4.65854        3.05605        1.68204
C         -4.13152        0.82128        2.82046
H         -1.57439        4.29715        2.52736
H         -5.55619        2.94787        2.30802
H         -5.02585        3.32992        0.68204
H         -3.91392        1.36336        3.74178
H         -5.16615        0.47561        2.88119
H         -3.48237       -0.05683        2.79439
C         -1.23039       -4.01638       -0.37703
C         -2.16023       -3.03307        0.04845
C         -1.68663       -1.76229        0.33045
C         -0.37249       -1.43675        0.11755
C          0.50644       -2.35065       -0.40103
C          0.10075       -3.64191       -0.69353
O         -1.62006       -5.38022       -0.44935
C         -3.66012       -3.32332        0.21311
H         -2.34242       -1.00313        0.72123
H          1.52195       -2.04010       -0.57225
C          1.10513       -4.61774       -1.32621
C          4.43375        0.90907       -0.92651
C          4.11328        1.09176        0.44252
C          2.80470        0.88275        0.84436
C          1.82206        0.57192       -0.06061
C          2.11159        0.51088       -1.39882
C          3.39645        0.71102       -1.87200
O          5.79131        0.89218       -1.34403
C          5.16838        1.47416        1.49260
H          2.53770        0.95774        1.88232
H          1.30307        0.31164       -2.07827
C          3.64820        0.69483       -3.38832
C         -4.49246       -2.05618       -0.08961
C         -4.12779       -4.41010       -0.77191
C         -3.93801       -3.76215        1.65852
C          0.39343       -5.62633       -2.24631
C          2.12661       -3.85548       -2.20032
C          1.86347       -5.35897       -0.21517
C         -1.44072       -6.09669        0.76574
H         -5.55704       -2.28754       -0.11297
H         -4.34952       -1.29070        0.67046
H         -4.21944       -1.63431       -1.05660
H         -5.20399       -4.56605       -0.70190
H         -3.89191       -4.12510       -1.79667
H         -3.64395       -5.36269       -0.57136
H         -3.38584       -4.66507        1.90883
H         -3.63864       -2.98498        2.36141
H         -4.99850       -3.96286        1.80858
H         -0.18622       -5.10684       -3.00863
H          1.11181       -6.27392       -2.74831
H         -0.28709       -6.26263       -1.68592
H          1.61501       -3.22249       -2.92479
H          2.78533       -3.22962       -1.59995
H          2.76035       -4.55020       -2.75107
H          2.59306       -6.05101       -0.63500
H          2.39488       -4.65473        0.42457
H          1.18277       -5.92859        0.41319
H         -1.01182       -5.44775        1.53034
H         -2.40116       -6.47902        1.11090
H         -0.77741       -6.94447        0.59491
C          6.38281       -0.40106       -1.33967
C          4.52495        2.27145        2.65013
C          5.79761        0.19673        2.06879
C          6.25839        2.37303        0.88078
C          4.81230        1.62857       -3.76662
C          3.95280       -0.74107       -3.84024
C          2.40208        1.19686       -4.15333
H          3.85454        1.65172        3.24384
H          5.28840        2.65433        3.32701
H          3.95992        3.12139        2.26831
H          6.54465        0.43625        2.82512
H          5.03745       -0.43202        2.53193
H          6.28241       -0.38893        1.29147
H          5.81538        3.26009        0.42930
H          6.97024        2.69767        1.63930
H          6.81703        1.84961        0.10881
H          5.74907        1.29233       -3.32934
H          4.94843        1.66747       -4.84708
H          4.62256        2.64104       -3.41188
H          3.11268       -1.39838       -3.62027
H          4.13976       -0.78156       -4.91299
H          4.82709       -1.13913       -3.33094
H          2.07652        2.16428       -3.77213
H          1.56981        0.49951       -4.07170
H          2.61948        1.31118       -5.21496
H          6.72252       -0.65153       -2.34447
H          7.24850       -0.40434       -0.67757
H          5.66338       -1.14805       -1.00165
