105
-153.06888294
Cl         0.26839        2.92467        2.64415
Pd        -0.22707        1.69675        0.81731
P         -0.72371        0.53136       -1.17459
N          0.40481       -0.74524       -1.61630
C          0.56746       -2.11900       -1.39373
C          0.05457       -2.82413       -0.27258
C          0.42344       -4.17085       -0.07072
C          0.06868       -4.85402        1.22913
C          0.03228       -6.38422        1.11506
C          1.33829       -6.90107        0.50320
C          1.57496       -6.29634       -0.89169
C          1.20577       -4.83642       -1.01810
C          1.66897       -4.13591       -2.12418
C          1.37923       -2.80735       -2.29427
H          1.77338       -2.27199       -3.14084
H          2.28039       -4.64883       -2.84736
H          2.62662       -6.41836       -1.18087
H          2.17492       -6.63615        1.16200
H         -0.15742       -6.84934        2.09278
H          0.81073       -4.56035        1.98138
C         -0.69185       -2.11746        0.79521
C          0.02804       -1.23022        1.63140
C         -0.64010       -0.60349        2.68289
C         -1.96948       -0.84963        2.91170
C         -2.68929       -1.73648        2.11777
C         -4.13587       -1.99343        2.47503
C         -4.88861       -2.95917        1.53944
C         -3.95724       -4.02871        0.95880
C         -2.80331       -3.36155        0.19916
C         -2.04820       -2.37816        1.05542
H         -2.12211       -4.11419       -0.21426
H         -4.50774       -4.72512        0.31057
H         -5.33740       -2.39293        0.71479
H         -4.65755       -1.02897        2.51849
H         -2.47231       -0.35511        3.72544
H         -0.09738        0.08904        3.30156
N          1.37827       -0.97596        1.37066
P          1.87146        0.70013        1.13209
C          2.67130        0.91996       -0.45444
C          2.33483        2.00812       -1.22475
C          2.80690        2.10283       -2.52010
C          3.62125        1.11219       -3.04959
C          3.96669        0.03192       -2.24910
C          3.49786       -0.06105       -0.95086
H          3.74433       -0.91291       -0.33724
H          4.59246       -0.74509       -2.65403
C          4.07456        1.18512       -4.46593
H          2.52244        2.93767       -3.13771
H          1.68091        2.76694       -0.82498
C          2.84222        1.35751        2.47840
C          2.87908        0.66614        3.66473
C          3.60129        1.17146        4.73122
C          4.29224        2.37006        4.60955
C          4.23262        3.05708        3.40391
C          3.50975        2.55018        2.33891
H          3.45548        3.08264        1.40256
H          4.75092        3.99563        3.30625
C          5.04470        2.93247        5.76501
H          3.62835        0.63896        5.66647
H          2.34258       -0.26562        3.74768
H          1.78550       -1.49937        0.60868
H          1.22217       -0.23984       -1.93843
C         -0.59183        1.72788       -2.51143
C         -0.15598        1.27162       -3.73369
C         -0.00651        2.15346       -4.78922
C         -0.30247        3.50006       -4.62967
C         -0.74709        3.94195       -3.39119
C         -0.89700        3.05683       -2.34141
H         -1.25994        3.39615       -1.38708
H         -0.97509        4.98521       -3.25419
C         -0.10707        4.45774       -5.75301
H          0.34890        1.80057       -5.74221
H          0.07880        0.22640       -3.85547
C         -2.39254       -0.10606       -1.27827
C         -2.64883       -1.00111       -2.29035
C         -3.93839       -1.46130       -2.49530
C         -4.97692       -1.03246       -1.68032
C         -4.70066       -0.11648       -0.67362
C         -3.41440        0.35036       -0.48095
H         -3.20996        1.10163        0.26185
H         -5.50212        0.24132       -0.05020
C         -6.36193       -1.53091       -1.90558
H         -4.14419       -2.16139       -3.28684
H         -1.83614       -1.33333       -2.91739
Cl        -2.06417        2.96950        0.55972
H          1.00167       -6.86035       -1.63722
H         -0.81044       -6.67999        0.47764
H          1.33750       -7.99931        0.45790
H         -0.88634       -4.47787        1.61145
H         -3.55063       -4.63928        1.77460
H         -3.20146       -2.83118       -0.66952
H         -4.16575       -2.38415        3.49935
H         -5.73490       -3.42619        2.06240
H          3.35132        0.70643       -5.12773
H          4.19141        2.22058       -4.78882
H          5.03537        0.68598       -4.59881
H          4.40742        3.58944        6.35842
H          5.41326        2.14058        6.41854
H          5.90593        3.51188        5.42942
H         -0.79753        5.29898       -5.67818
H          0.90898        4.85478       -5.75058
H         -0.27763        3.97472       -6.71616
H         -6.78031       -1.11135       -2.82144
H         -6.37460       -2.61810       -1.99621
H         -7.02216       -1.25890       -1.08091
