171
-217.84793719
P         -1.53332        0.38633       -0.30174
P          1.59390       -0.47843       -0.30068
C         -0.81381        1.29379       -1.67354
C          0.85526       -1.44675       -1.62614
C         -0.08215        0.63185       -2.65237
C          0.51602        1.38862       -3.67843
C          0.33417        2.76168       -3.69986
C         -0.41127        3.39631       -2.72864
C         -0.97991        2.65627       -1.71037
C          1.02135       -2.81021       -1.59085
C          0.40356       -3.61280       -2.52910
C         -0.39677       -3.03979       -3.49403
C         -0.57898       -1.66802       -3.54876
C          0.07341       -0.84733       -2.60804
Cl         1.53618        0.07097        2.99764
Cl        -1.63114       -0.49574        2.86978
C         -1.46849       -1.09635       -4.59685
C          1.32072        0.73743       -4.74858
H         -0.54960        4.46446       -2.76405
H         -1.55776        3.14154       -0.94006
H          1.63712       -3.25221       -0.82493
H          0.54027       -4.68147       -2.50051
H          0.78641        3.33576       -4.49092
H         -0.89655       -3.66158       -4.21765
C         -3.98133       -3.18651       -1.59905
C         -2.98228       -3.36671       -0.65068
C         -2.24293       -2.25491       -0.26965
C         -2.47915       -1.03269       -0.84683
C         -3.44929       -0.87654       -1.80625
C         -4.23198       -1.95699       -2.19625
H         -4.59691       -4.02591       -1.86445
H         -1.48207       -2.33105        0.48715
H         -3.59352        0.09814       -2.24059
C         -4.20749        3.12413        2.14654
C         -4.78948        2.22811        1.25800
C         -3.94694        1.40322        0.52683
C         -2.58425        1.48588        0.66711
C         -2.02639        2.38044        1.54717
C         -2.83155        3.20264        2.32553
H         -4.83692        3.77909        2.71852
H         -4.36219        0.68080       -0.15286
H         -0.95539        2.41705        1.63936
C          4.56253       -2.91800        2.11201
C          3.21488       -3.25295        2.17609
C          2.32558       -2.51384        1.40818
C          2.76919       -1.47281        0.63139
C          4.10199       -1.14740        0.59022
C          5.03028       -1.87069        1.32765
H          5.27180       -3.47665        2.69313
H          1.27252       -2.73862        1.43246
H          4.41073       -0.31329       -0.01393
C          3.67858        3.35839       -1.48262
C          2.74831        3.38798       -0.45089
C          2.10111        2.20280       -0.12980
C          2.37563        1.04786       -0.81917
C          3.30096        1.03262       -1.83366
C          3.97769        2.19576       -2.18293
H          4.20239        4.25891       -1.74232
H          1.39114        2.17455        0.67882
H          3.49910        0.10149       -2.33671
Pd         0.00474       -0.14748        1.37124
C         -1.48964       -4.75861        0.86323
C         -2.74967       -4.74821       -0.02477
C         -2.56153       -5.79515       -1.13910
C         -3.96726       -5.11975        0.83887
H         -1.59753       -4.08212        1.71073
H         -1.30418       -5.75581        1.26200
H         -0.61186       -4.45947        0.29128
H         -2.34920       -6.77788       -0.71844
H         -3.45390       -5.88581       -1.75686
H         -1.73135       -5.52006       -1.78866
H         -3.83111       -6.09407        1.30781
H         -4.11817       -4.38258        1.62732
H         -4.87648       -5.15913        0.23975
C         -6.72129       -1.93264       -2.40305
C         -5.39982       -1.80404       -3.18159
C         -5.32773       -2.90142       -4.26128
C         -5.37451       -0.43209       -3.88436
H         -6.79136       -1.16392       -1.63363
H         -7.57878       -1.82548       -3.06712
H         -6.79427       -2.90302       -1.91280
H         -4.37657       -2.86429       -4.79067
H         -5.43203       -3.89570       -3.82943
H         -6.12462       -2.77720       -4.99438
H         -6.18279       -0.35539       -4.61150
H         -5.50175        0.38021       -3.16959
H         -4.43554       -0.27964       -4.41526
C         -7.07829        3.09897        1.95553
C         -6.30789        2.10071        1.07061
C         -6.74414        0.67245        1.44808
C         -6.66293        2.37701       -0.40235
H         -6.80845        4.12681        1.71363
H         -8.15333        2.99667        1.80774
H         -6.87315        2.92615        3.01184
H         -7.82177        0.55145        1.33945
H         -6.25991       -0.07021        0.81500
H         -6.48095        0.45097        2.48213
H         -6.33884        3.37528       -0.69585
H         -6.18129        1.66062       -1.06648
H         -7.73858        2.30928       -0.56413
C         -0.74873        3.88553        3.61487
C         -2.23904        4.17994        3.35134
C         -2.98850        4.04888        4.69206
C         -2.37877        5.61401        2.81430
H         -0.35683        4.53476        4.39759
H         -0.60486        2.85327        3.93407
H         -0.15069        4.05678        2.72234
H         -4.03436        4.33729        4.59840
H         -2.95282        3.02075        5.05189
H         -2.53953        4.68765        5.45247
H         -3.42536        5.86953        2.65064
H         -1.96056        6.33657        3.51486
H         -1.85618        5.72209        1.86402
C          3.78002       -4.97751        3.96103
C          2.68026       -4.39265        3.05428
C          2.13966       -5.51219        2.14791
C          1.54688       -3.85720        3.95218
H          4.58305       -5.41954        3.37170
H          4.20561       -4.20776        4.60463
H          3.37597       -5.76028        4.60290
H          1.34436       -5.14318        1.50231
H          2.92995       -5.90667        1.50950
H          1.73843       -6.33526        2.73893
H          1.89918       -3.02340        4.55897
H          0.70127       -3.50514        3.36306
H          1.18063       -4.63365        4.62338
C          7.32716       -2.75556        0.83986
C          6.52673       -1.52784        1.31179
C          6.96938       -1.13105        2.73179
C          6.83015       -0.35378        0.35913
H          8.39333       -2.53331        0.79799
H          7.19000       -3.60146        1.51235
H          7.00723       -3.06361       -0.15542
H          6.39491       -0.27615        3.08803
H          6.82150       -1.94943        3.43542
H          8.02505       -0.86087        2.75065
H          6.30497        0.54964        0.66890
H          7.89629       -0.12763        0.35046
H          6.53528       -0.59241       -0.66259
C          3.30552        5.84767       -0.09278
C          2.44108        4.65517        0.35904
C          2.72856        4.38319        1.84813
C          0.96023        5.02950        0.17202
H          3.07912        6.73454        0.49904
H          4.36670        5.63126        0.02916
H          3.11979        6.09335       -1.13821
H          3.77530        4.11761        1.99442
H          2.51515        5.26311        2.45468
H          2.12355        3.56115        2.22763
H          0.69709        5.89995        0.77265
H          0.75422        5.26596       -0.87108
H          0.30582        4.20933        0.46160
C          5.23452        0.84208       -3.93528
C          5.07006        2.21846       -3.26160
C          6.41192        2.60122       -2.60966
C          4.70660        3.25491       -4.34122
H          5.52849        0.08317       -3.21045
H          4.30868        0.52278       -4.41169
H          6.00585        0.87790       -4.70448
H          6.36381        3.59075       -2.15657
H          6.67745        1.88915       -1.82872
H          7.21532        2.60980       -3.34604
H          3.74019        3.02663       -4.78839
H          4.65090        4.25966       -3.92427
H          5.45176        3.26665       -5.13647
H         -1.72562       -0.05826       -4.38247
H          0.71375        0.55594       -5.63638
H         -2.39987       -1.65931       -4.65938
H         -0.99093       -1.13301       -5.57690
H          1.72681       -0.21833       -4.41435
H          2.15937        1.36730       -5.04533
