105
-153.06518148
Cl        -0.05632        1.91401        3.10035
Pd        -0.43980        1.32089        0.96264
P         -1.11936        0.50445       -1.14916
N         -0.74290       -1.01107       -1.96648
C          0.18206       -1.99705       -1.62548
C          0.32067       -2.47963       -0.30003
C          1.28498       -3.47112       -0.02442
C          1.40777       -3.99802        1.38571
C          2.23411       -5.28673        1.51832
C          3.50448       -5.21304        0.66652
C          3.15039       -5.01727       -0.81497
C          2.08693       -3.97468       -1.05259
C          1.89509       -3.52091       -2.35153
C          0.95919       -2.56163       -2.63593
H          0.83366       -2.20888       -3.64474
H          2.50363       -3.92838       -3.14106
H          4.04661       -4.74489       -1.38715
H          4.12216       -4.37279        1.00788
H          2.48214       -5.48582        2.57048
H          1.85446       -3.21355        2.00729
C         -0.67694       -2.12256        0.73706
C         -0.25104       -1.53547        1.95905
C         -1.18202       -1.39820        2.99273
C         -2.48140       -1.80295        2.83147
C         -2.91903       -2.37072        1.64109
C         -4.35451       -2.83225        1.56073
C         -4.82063       -3.20527        0.14433
C         -3.74241       -4.00719       -0.58885
C         -2.44352       -3.19541       -0.69940
C         -2.01607       -2.53274        0.58805
H         -1.62960       -3.83827       -1.05721
H         -4.09549       -4.31923       -1.58198
H         -5.03844       -2.29228       -0.42324
H         -5.00087       -2.05138        1.98057
H         -3.18332       -1.68439        3.63955
H         -0.86857       -0.94176        3.91520
N          1.04833       -1.03948        2.13936
P          1.61271        0.18215        1.00067
C          2.62552       -0.35947       -0.36265
C          2.41167        0.20148       -1.59685
C          3.23017       -0.14403       -2.65644
C          4.27706       -1.03854       -2.47551
C          4.48388       -1.58159       -1.21377
C          3.66305       -1.23528       -0.15536
H          3.82353       -1.64292        0.83008
H          5.28909       -2.28070       -1.06601
C          5.13235       -1.44510       -3.62418
H          3.05588        0.27587       -3.63220
H          1.59833        0.89542       -1.72492
C          2.53786        1.48821        1.81600
C          3.24211        1.22463        2.96606
C          3.95472        2.23820        3.58093
C          3.96388        3.52018        3.04754
C          3.26312        3.75985        1.87321
C          2.55213        2.74520        1.25857
H          2.00556        2.92899        0.34649
H          3.27611        4.74683        1.44333
C          4.74564        4.60741        3.69886
H          4.50916        2.03864        4.48198
H          3.24003        0.22766        3.37585
H          1.20739       -0.61257        3.04276
H         -1.02307       -0.92126       -2.93507
C         -0.62370        1.86736       -2.21805
C         -0.87860        3.16534       -1.84544
C         -0.48130        4.21185       -2.65509
C          0.18164        3.96691       -3.84944
C          0.41736        2.65073       -4.22164
C          0.01552        1.60726       -3.40819
H          0.21547        0.58846       -3.69421
H          0.91947        2.44799       -5.15224
C          0.59294        5.09203       -4.73401
H         -0.68484        5.22799       -2.36321
H         -1.39393        3.35419       -0.91916
C         -2.91437        0.53638       -1.08099
C         -3.60115        0.79890       -2.24260
C         -4.98466        0.81909       -2.23567
C         -5.68835        0.58748       -1.06176
C         -4.97688        0.31580        0.09818
C         -3.59494        0.28131        0.08415
H         -3.03947        0.07166        0.98401
H         -5.51257        0.13362        1.01391
C         -7.17724        0.58657       -1.05400
H         -5.52643        1.01859       -3.14436
H         -3.05170        0.98807       -3.15159
Cl        -2.28127        2.62382        0.94236
H          2.80805       -5.96763       -1.24166
H          1.62885       -6.14190        1.19230
H          4.12283       -6.11084        0.80777
H          0.40057       -4.15576        1.79164
H         -3.54478       -4.93670       -0.04033
H         -2.56330       -2.41840       -1.46305
H         -4.47574       -3.69630        2.22503
H         -5.76722       -3.76305        0.17727
H          5.22082       -0.63900       -4.35387
H          6.13907       -1.70425       -3.29342
H          4.71063       -2.31385       -4.13159
H          4.28553        5.58107        3.52479
H          4.80393        4.45807        4.77789
H          5.76338        4.64083        3.30770
H         -0.20514        5.34715       -5.43250
H          0.82898        5.98405       -4.15204
H          1.47901        4.83256       -5.31510
H         -7.57578        1.24969       -1.82305
H         -7.56478       -0.41617       -1.23953
H         -7.56531        0.92500       -0.09228
