111
-148.55438818
P         -2.60298        1.87071        1.03166
P          0.22198        0.54369        0.41225
C         -1.42599        1.56193        2.37904
C         -0.18049        1.04228        2.09873
C         -3.66844        3.33492        1.42229
C         -3.63504        4.36100        0.31157
C         -1.77574        1.83900        3.68563
H         -2.75704        2.22680        3.90446
C         -0.87242        1.60261        4.70747
H         -1.14607        1.81900        5.72725
C          0.37730        1.08762        4.42249
H          1.07990        0.90057        5.21784
C          0.72183        0.80181        3.11400
H          1.68650        0.38200        2.87751
Pd        -1.33761        1.67646       -0.89220
Cl        -3.07757        2.41443       -2.09028
Cl         0.05001        1.30894       -2.62134
C         -5.05731        2.69948        1.64458
C         -3.89101        0.55335        0.86087
H         -4.23240        5.24147        0.55990
H         -2.61427        4.69064        0.10459
H         -4.03928        3.94118       -0.61038
H         -5.83891        3.40988        1.33790
H         -5.22190        2.52457        2.71800
H         -3.72954        0.07462       -0.11496
C         -5.20821        1.35573        0.87647
C         -3.77458       -0.46402        1.97454
H         -3.27845        3.77337        2.35049
H         -6.00686        0.74293        1.31947
H         -5.52985        1.56231       -0.15503
H         -4.52793       -1.24996        1.88194
H         -2.79113       -0.93790        1.97345
H         -3.90865        0.01250        2.94746
C         -1.31391       -3.70672       -0.18993
C         -0.94884       -3.26657        1.10804
C         -0.46140       -1.97864        1.25227
C         -0.37816       -1.13011        0.17994
C         -0.80142       -1.52565       -1.06037
C         -1.32595       -2.78827       -1.27066
O         -1.63571       -5.07251       -0.41006
C         -1.04625       -4.17638        2.34260
H         -0.13718       -1.61719        2.21214
H         -0.70930       -0.82484       -1.87129
C         -1.89503       -3.13095       -2.65639
C          4.68253        0.60525       -0.50246
C          4.12563       -0.44909        0.26561
C          2.76092       -0.43681        0.50103
C          1.97865        0.60745        0.08102
C          2.53020        1.68294       -0.56345
C          3.88576        1.72750       -0.84590
O          6.02474        0.51994       -0.95923
C          4.96506       -1.61164        0.81877
H          2.28329       -1.25847        1.00676
H          1.87616        2.48068       -0.86995
C          4.45941        2.95936       -1.56336
C          0.24672       -4.99603        2.47103
C         -1.22642       -3.34383        3.63258
C         -2.26286       -5.11378        2.23899
C         -3.03613       -4.15869       -2.55074
C         -2.49037       -1.86837       -3.32324
C         -0.76955       -3.67401       -3.54934
C         -0.53064       -5.87102       -0.81446
H          0.40409       -5.62360        1.59745
H          1.11100       -4.33918        2.56755
H          0.21394       -5.64245        3.34769
H         -1.40875       -3.99341        4.48838
H         -0.33790       -2.75714        3.86150
H         -2.07422       -2.66556        3.54397
H         -2.36985       -5.71818        3.13938
H         -3.17905       -4.53959        2.10470
H         -2.16841       -5.79372        1.39576
H         -2.68190       -5.10752       -2.15629
H         -3.81991       -3.79384       -1.88768
H         -3.48041       -4.35272       -3.52666
H         -3.20375       -1.37931       -2.66038
H         -1.71871       -1.14650       -3.58590
H         -3.01220       -2.12646       -4.24430
H         -0.32887       -4.57353       -3.12608
H         -1.14299       -3.91711       -4.54373
H          0.02481       -2.93595       -3.65821
H         -0.41276       -6.70533       -0.12306
H         -0.71453       -6.27757       -1.80866
H          0.38397       -5.27681       -0.82775
C          6.16967       -0.13939       -2.21106
C          4.35591       -2.14277        2.13702
C          4.98719       -2.75608       -0.20575
C          6.40025       -1.15742        1.14117
C          3.64982        4.22689       -1.20737
C          5.91514        3.22344       -1.13779
C          4.38107        2.74085       -3.08209
H          4.20706       -1.33173        2.84946
H          3.39817       -2.63376        1.97100
H          5.01504       -2.87725        2.59930
H          5.56573       -3.60151        0.16577
H          3.97610       -3.10478       -0.41525
H          5.42761       -2.43514       -1.14666
H          6.38985       -0.31877        1.83655
H          6.97511       -1.96556        1.59275
H          6.92760       -0.84012        0.24520
H          3.57387        4.34792       -0.12711
H          4.12980        5.11814       -1.61100
H          2.64334        4.19175       -1.62163
H          6.29924        4.13315       -1.59864
H          5.98432        3.33557       -0.05631
H          6.56914        2.40596       -1.43061
H          4.76751        3.60490       -3.62192
H          3.34939        2.58032       -3.39445
H          4.95685        1.86989       -3.38535
H          6.81110       -1.01260       -2.09353
H          5.19613       -0.45117       -2.59154
H          6.64081        0.53438       -2.92654
