59
-75.79764139
Cl         1.57160        0.80961        2.31449
P          1.60318       -0.00265       -0.78165
P         -1.57334       -0.11746       -0.83281
C          0.68389        0.59296       -2.26742
H          0.49902        1.66128       -2.14087
H          1.33008        0.47895       -3.14295
C         -0.60513       -0.17066       -2.41230
H         -0.40287       -1.21879       -2.64413
H         -1.22930        0.22056       -3.22163
C          2.22877       -1.71398       -1.12841
H          1.73848       -2.00967       -2.06501
C          3.22926        0.85311       -0.58695
H          3.49228        0.77512        0.47505
C         -2.44963       -1.70058       -0.41969
H         -2.19520       -1.92012        0.62459
C         -3.02860        1.02697       -0.94548
H         -3.19914        1.18906       -2.01677
C          3.74623       -1.53071       -1.36035
H          4.29926       -2.02049       -0.54998
H          4.05837       -2.06094       -2.27244
C          4.15964       -0.03328       -1.43346
H          4.11660        0.31191       -2.47629
H          5.20666        0.10336       -1.12136
C         -3.93819       -1.32936       -0.54178
H         -4.29637       -1.62397       -1.53769
H         -4.53850       -1.91386        0.17182
C         -4.17113        0.19170       -0.34103
H         -4.23651        0.41128        0.73371
H         -5.13853        0.50181       -0.76490
C          1.86057       -2.68558       -0.00731
H          2.14031       -3.70498       -0.30799
H          0.76731       -2.70340        0.09656
C          3.18772        2.31692       -1.00734
H          4.21434        2.70582       -1.05792
H          2.80502        2.38235       -2.03394
C         -2.02648       -2.85901       -1.31588
H         -2.28890       -2.61723       -2.35423
H         -0.93247       -2.94603       -1.30681
C         -2.81818        2.36454       -0.24404
H         -3.76811        2.91696       -0.23911
H         -2.58968        2.17955        0.81273
C          2.48476       -2.36144        1.34348
H          3.56981       -2.47078        1.33174
H          2.10719       -3.01448        2.13374
H          2.27242       -1.33557        1.64244
C          2.35207        3.17527       -0.07055
H          2.30327        4.21635       -0.39746
H          2.76041        3.16554        0.94176
H          1.32986        2.80324        0.00013
C         -2.65409       -4.18369       -0.90857
H         -3.74363       -4.13793       -0.95409
H         -2.38610       -4.44708        0.11642
H         -2.33345       -5.00500       -1.55361
C         -1.72763        3.21299       -0.87346
H         -1.92925        3.39920       -1.92999
H         -1.62449        4.18219       -0.38003
H         -0.76196        2.71372       -0.81067
Cl        -1.74093        0.51233        2.26376
Pd        -0.02369        0.22382        0.85076
