58
-89.86777291
P          1.72875       -0.30375        0.90324
C          1.50905        1.48494        0.85874
C          1.54892        2.09477       -0.37492
C          1.34703        3.45839       -0.48119
C          1.11026        4.20580        0.65462
C          1.08182        3.59361        1.89183
C          1.28392        2.22953        1.99382
H          1.27592        1.75171        2.95881
H          1.73074        1.49298       -1.25194
C          3.41717       -0.74652        0.48753
C          3.73933       -2.07133        0.30284
C          5.03677       -2.42352       -0.02467
C          6.00132       -1.44496       -0.16363
C          5.67276       -0.11661        0.02256
C          4.37467        0.23234        0.34884
H          4.10223        1.26530        0.49282
H          2.97198       -2.82302        0.40240
C          1.28675       -1.06260        2.52609
C         -0.18258       -1.42625        2.68272
C         -1.14148       -0.26132        2.46194
P         -1.62257       -0.09637        0.68970
C         -3.05636       -1.13478        0.39394
C         -2.91437       -2.49782        0.27022
C         -4.02793       -3.28648        0.04278
C         -5.27593       -2.70372       -0.05709
C         -5.41366       -1.33544        0.06848
C         -4.29807       -0.54928        0.29496
H         -4.38802        0.52103        0.39106
H         -1.93323       -2.93986        0.33555
C         -1.95992        1.60874        0.23085
C         -2.19789        2.57494        1.18204
C         -2.44064        3.87875        0.78886
C         -2.44855        4.20485       -0.55318
C         -2.22240        3.23002       -1.50437
C         -1.98128        1.92823       -1.10733
H         -1.81365        1.14857       -1.83296
H         -2.19416        2.31046        2.22671
Pd         0.11330       -0.74714       -0.70750
Cl         1.83551       -1.19079       -2.07639
Cl        -1.47458       -1.13796       -2.25024
H         -2.07690       -0.39342        3.01194
H         -0.70243        0.67508        2.80569
H         -0.43807       -2.23415        1.98360
H         -0.34061       -1.85563        3.68446
H          1.91858       -1.94733        2.63708
H          1.60138       -0.36519        3.30375
H          1.36761        3.93309       -1.44831
H          0.89923        4.17825        2.77853
H          5.29165       -3.45958       -0.17577
H          6.42449        0.64743       -0.08889
H         -3.91971       -4.35363       -0.06100
H         -6.38687       -0.87981       -0.01221
H         -2.61974        4.63985        1.53043
H         -2.23317        3.48116       -2.55218
H          0.94598        5.26805        0.57536
H          7.01164       -1.71827       -0.42105
H         -6.14351       -3.31760       -0.23647
H         -2.63395        5.22168       -0.85871
