72
-108.40370072
Cl        -1.78889        0.79032        2.67605
Cl         0.98948       -0.73186        2.75543
P          1.12152       -1.14721       -0.27345
P         -2.25620        0.13343       -0.40061
C         -3.26361       -1.46060       -0.18946
C         -3.64051       -1.62526        1.28423
C         -4.51738       -1.40254       -1.05467
C         -3.32495        1.68877       -0.14958
C         -4.12086        1.99918       -1.42389
C         -1.42487        0.43310       -2.06870
C         -1.48518       -0.72601       -3.04168
C          1.14650        0.19767       -1.49795
C         -0.00453        0.96374       -1.97490
C          0.51375        2.04418       -2.81664
C          1.95857        1.94101       -2.85956
C          2.34537        0.80830       -2.04088
C         -2.40638       -2.65441       -0.58763
H         -2.75766       -1.61297        1.92344
H         -4.31379       -0.84514        1.62883
H         -5.20381       -0.62960       -0.71311
H         -5.05504       -2.35127       -1.01441
C         -4.29725        1.54929        1.01776
H         -4.61792        1.11420       -1.81700
H         -3.49139        2.41310       -2.21078
H         -2.02151        1.24589       -2.49303
H         -0.84310       -1.53743       -2.70698
H         -1.11779       -0.42894       -4.02614
H         -2.49705       -1.10770       -3.17267
H         -0.09448        2.74133       -3.39567
H          2.63454        2.58774       -3.42282
Pd        -0.52738       -0.26396        1.15436
H          3.36322        0.46708       -1.84028
C         -2.34852        2.82154        0.13044
H         -4.88987        2.74621       -1.22022
H         -3.78835        1.23878        1.92779
H         -4.77893        2.50533        1.22795
H         -5.09084        0.83812        0.79604
H         -1.58293        2.87888       -0.64470
H         -2.86484        3.78292        0.16633
H         -1.85936        2.67569        1.09235
H         -4.14801       -2.57778        1.44532
H         -4.27538       -1.20465       -2.09785
H         -1.48000       -2.66416       -0.01620
H         -2.92780       -3.59092       -0.38236
H         -2.16340       -2.65262       -1.64696
C          2.79257       -1.25199        0.42080
C          3.23126       -2.24183        1.26481
C          4.55959       -1.95466        1.57877
C          4.87944       -0.79960        0.90923
O          3.80408       -0.35809        0.19402
H          2.64867       -3.07052        1.63164
H          5.20637       -2.52537        2.22498
H          5.83871       -0.29759        0.93564
C          0.73344       -2.75059       -0.99917
C          0.63937       -3.90817       -0.26643
C          0.32903       -4.93364       -1.16068
C          0.24719       -4.35745       -2.40459
O          0.48955       -3.01600       -2.31902
H          0.76168       -3.99654        0.80107
H          0.18174       -5.97412       -0.92138
H          0.02177       -4.87611       -3.32814
Fe         1.30806        2.11749       -0.89778
C          0.89367        3.79973        0.24392
C          2.20330        3.88000       -0.37690
C          2.99705        2.75889        0.09523
C          2.17060        1.97105        0.98710
C          0.87520        2.60910        1.07188
H          0.08306        4.52266        0.13062
H          2.54769        4.67169       -1.04637
H          4.03508        2.54434       -0.16853
H          2.46494        1.05545        1.50265
H          0.06033        2.27438        1.71573
