105
-153.05942043
Cl         2.90919        2.23508        0.05215
Pd         0.77485        1.77563       -0.50237
P         -1.37573        1.24237       -1.23629
N         -1.41225       -0.38691       -0.68337
C         -0.43359       -1.25188       -1.15950
C         -0.05726       -2.32852       -0.31756
C          1.04512       -3.12757       -0.67082
C          1.49243       -4.23400        0.25087
C          2.24815       -5.34897       -0.48429
C          3.40424       -4.75522       -1.29579
C          2.90291       -3.71907       -2.31836
C          1.73795       -2.87309       -1.85842
C          1.33184       -1.82390       -2.67805
C          0.27242       -1.02342       -2.33956
H         -0.01409       -0.20278       -2.97067
H          1.87113       -1.63964       -3.59173
H          3.72350       -3.05092       -2.60921
H          4.11370       -4.27664       -0.61032
H          2.60972       -6.11190        0.21958
H          2.14271       -3.80119        1.01732
C         -0.95164       -2.68457        0.81739
C         -1.10221       -1.86669        1.97255
C         -1.93762       -2.31660        2.99496
C         -2.63539       -3.49116        2.88650
C         -2.56886       -4.26214        1.73407
C         -3.42169       -5.50669        1.66223
C         -3.18656       -6.37108        0.41265
C         -2.97008       -5.49647       -0.82556
C         -1.74819       -4.58696       -0.63210
C         -1.74767       -3.84398        0.68479
H         -0.83608       -5.18794       -0.70830
H         -3.86037       -4.87766       -0.99388
H         -4.02154       -7.06843        0.25553
H         -4.47501       -5.20442        1.70509
H         -3.27488       -3.81257        3.69133
H         -2.04212       -1.71213        3.87944
N         -0.53813       -0.60391        2.14309
P          0.78668        0.26026        1.33662
C          2.22544       -0.80937        1.31578
C          2.43357       -1.60587        2.41695
C          3.56876       -2.39364        2.49397
C          4.49629       -2.39553        1.46166
C          4.26654       -1.58662        0.35644
C          3.13506       -0.79551        0.28559
H          2.96357       -0.15929       -0.56707
H          4.98291       -1.57364       -0.44701
C          5.71986       -3.23912        1.55526
H          3.73956       -3.01472        3.35664
H          1.70691       -1.60308        3.21436
C          1.17762        1.59304        2.49247
C          0.27809        2.61903        2.65748
C          0.56264        3.65731        3.52462
C          1.75742        3.68046        4.23012
C          2.65159        2.63311        4.05778
C          2.36264        1.59667        3.18978
H          3.06765        0.79531        3.04550
H          3.57887        2.63673        4.60488
C          2.05826        4.78744        5.17961
H         -0.14316        4.45985        3.65513
H         -0.64233        2.61414        2.10063
H         -0.63662       -0.18354        3.05961
H         -1.34492       -0.34083        0.33101
C         -1.93355        1.26091       -2.93870
C         -1.37095        2.10039       -3.86921
C         -1.82291        2.08343       -5.17459
C         -2.84787        1.22740       -5.55506
C         -3.39736        0.37860       -4.60315
C         -2.94193        0.39837       -3.29650
H         -3.35785       -0.26282       -2.55221
H         -4.18147       -0.30039       -4.89162
C         -3.31831        1.18881       -6.96746
H         -1.37963        2.73489       -5.90825
H         -0.57487        2.75961       -3.56750
C         -2.42290        2.26664       -0.20824
C         -2.97661        3.41644       -0.71832
C         -3.74854        4.22450        0.09678
C         -3.96959        3.88413        1.42493
C         -3.38912        2.72577        1.92340
C         -2.61910        1.91865        1.10761
H         -2.14102        1.03929        1.50743
H         -3.53704        2.46464        2.95751
C         -4.77218        4.77047        2.31240
H         -4.17979        5.13031       -0.29391
H         -2.79440        3.68098       -1.74782
Cl         0.82268        3.43635       -2.01696
H          2.60659       -4.23227       -3.24111
H          1.56008       -5.87103       -1.16069
H          3.97498       -5.55063       -1.79532
H          0.63837       -4.64083        0.80405
H         -2.86319       -6.11389       -1.72872
H         -1.68866       -3.85802       -1.45039
H         -3.25178       -6.09977        2.56994
H         -2.30224       -7.00234        0.56687
H          6.39276       -2.86072        2.32594
H          5.46424       -4.26937        1.80745
H          6.26721       -3.25358        0.61179
H          1.57440        5.71461        4.86933
H          1.70704        4.54353        6.18315
H          3.13106        4.97736        5.23474
H         -4.36939        0.90246       -7.02483
H         -3.21532        2.16495       -7.44349
H         -2.74087        0.46833       -7.54832
H         -5.52226        5.32241        1.74428
H         -5.29476        4.19310        3.07638
H         -4.13162        5.49500        2.81712
