58
-89.85761157
P          1.62252       -0.12528        0.71904
C          2.64909        1.30396        1.06890
C          3.17000        1.51408        2.32567
C          3.96265        2.62290        2.56288
C          4.23361        3.50910        1.53867
C          3.72058        3.28677        0.27619
C          2.92904        2.17762        0.04346
H          2.54328        1.96866       -0.94120
H          2.96391        0.80837        3.11391
C          2.58930       -1.44818       -0.01310
C          3.93101       -1.27198       -0.26116
C          4.66137       -2.29162       -0.84413
C          4.03984       -3.47948       -1.17612
C          2.69181       -3.64989       -0.92857
C          1.96378       -2.62834       -0.34555
H          0.90822       -2.74331       -0.15641
H          4.39901       -0.33535       -0.00500
C          0.77325       -0.76960        2.21361
C         -0.07250        0.26270        2.94457
C         -0.92101        1.14567        2.03782
P         -1.74386        0.26350        0.64020
C         -2.12856       -1.45586        0.98028
C         -1.84618       -2.40619        0.02474
C         -2.10976       -3.73888        0.28229
C         -2.66366       -4.10754        1.49247
C         -2.96000       -3.14845        2.44133
C         -2.69268       -1.81600        2.18258
H         -2.92269       -1.05483        2.91103
H         -1.44330       -2.09854       -0.92696
C         -3.19246        1.16771        0.09383
C         -3.09272        2.51659       -0.15884
C         -4.20144        3.21525       -0.60291
C         -5.39981        2.55564       -0.79333
C         -5.49271        1.20053       -0.54357
C         -4.38257        0.50466       -0.09996
H         -4.43612       -0.55497        0.09137
H         -2.14664        3.01529       -0.01801
Pd         0.00239        0.26753       -0.89907
Cl         1.66818        0.40952       -2.39776
Cl        -1.62660        0.56475       -2.41866
H         -1.69762        1.66738        2.60239
H         -0.30619        1.91818        1.56973
H         -0.72096       -0.25387        3.66761
H          0.57647        0.90235        3.56074
H          0.15620       -1.59884        1.86477
H          1.53222       -1.20685        2.86646
H          4.36970        2.79314        3.54607
H          3.93941        3.97134       -0.52674
H          5.71192       -2.15660       -1.04254
H          2.20578       -4.57471       -1.19266
H         -1.88906       -4.48585       -0.46247
H         -3.39840       -3.43669        3.38261
H         -4.12724        4.27119       -0.80473
H         -6.42619        0.68462       -0.69751
H          4.85130        4.37278        1.72376
H          4.60729       -4.27379       -1.63305
H         -2.87130       -5.14571        1.69447
H         -6.26310        3.09874       -1.14186
