75
-122.81286280
P          1.90935       -0.53334       -0.15489
C          3.36707       -1.21481       -0.97621
C          3.56769       -1.09780       -2.33155
C          4.70142       -1.62864       -2.91532
C          5.63940       -2.27212       -2.13361
C          5.44499       -2.38098       -0.77133
C          4.30644       -1.84872       -0.19346
H          4.14405       -1.92663        0.86980
H          6.17771       -2.87967       -0.15838
H          6.52560       -2.68616       -2.58633
H          4.85529       -1.53415       -3.97777
H          2.84586       -0.56776       -2.92712
C          1.61571       -1.59603        1.26220
C          1.87352       -1.14536        2.53655
C          1.76624       -2.01425        3.60677
C          1.40734       -3.33006        3.39041
C          1.15105       -3.77774        2.10946
C          1.25975       -2.90663        1.04020
H          1.08565       -3.24546        0.03077
H          0.86827       -4.80386        1.94156
H          1.31995       -4.00754        4.22403
H          1.96165       -1.66392        4.60686
H          2.16113       -0.11752        2.68699
C          2.26489        1.15029        0.35848
C          3.42123        1.80775        0.01035
C          3.59637        3.14535        0.33784
C          2.56167        3.81481        0.99059
C          1.39335        3.16934        1.33132
C          1.24537        1.80585        1.03139
O          0.07316        1.10714        1.36185
C         -1.13416        1.77473        1.10112
C         -1.29003        3.14000        1.38853
C         -2.48154        3.76184        1.08854
C         -3.53374        3.06331        0.49788
C         -3.35900        1.71863        0.20255
C         -2.18038        1.08091        0.51157
P         -1.80351       -0.63175        0.08815
C         -1.76489       -1.59836        1.60874
C         -1.43713       -1.00386        2.80556
C         -1.50144       -1.73065        3.97957
C         -1.88789       -3.05563        3.94647
C         -2.20654       -3.65356        2.74336
C         -2.14721       -2.92026        1.57193
H         -2.41024       -3.36999        0.62781
H         -2.50521       -4.68855        2.71632
H         -1.93388       -3.62571        4.85996
H         -1.24142       -1.26536        4.91608
H         -1.11364        0.02319        2.81274
C         -3.10995       -1.34343       -0.92904
C         -4.39430       -1.35688       -0.43384
C         -5.41505       -1.91767       -1.18001
C         -5.13983       -2.47088       -2.41450
C         -3.84739       -2.47103       -2.89984
C         -2.82923       -1.91022       -2.15108
H         -1.81628       -1.91116       -2.51927
H         -3.63118       -2.90627       -3.86167
H         -5.93408       -2.90660       -2.99844
H         -6.42191       -1.92503       -0.79606
H         -4.59059       -0.94301        0.54294
Pd        -0.04924       -0.03243       -1.41022
Cl        -1.73235        0.97055       -2.54765
Cl         1.35964        0.91721       -2.88981
H         -4.14067        1.17917       -0.30138
C         -4.79636        3.75846        0.13206
H         -4.98467        4.60688        0.79116
H         -5.65099        3.08469        0.20616
H         -4.74876        4.13068       -0.89205
H         -2.59307        4.80966        1.30486
S          0.05915        4.02456        2.12724
H          2.66748        4.85985        1.22270
C          4.83384        3.86569       -0.06315
H          4.18413        1.28383       -0.53911
H          5.04261        4.69655        0.61211
H          5.69795        3.20007       -0.04732
H          4.73654        4.26749       -1.07253
