105
-153.06398722
Cl        -0.21031        2.36535        2.91987
Pd        -0.47495        1.57700        0.82503
P         -1.08597        0.53969       -1.20186
N         -0.98328       -1.19679       -1.44693
C          0.14479       -2.02529       -1.33716
C          0.29136       -2.82444       -0.17618
C          1.33454       -3.75953       -0.08550
C          1.44540       -4.60605        1.15906
C          2.41450       -5.79250        1.02897
C          3.70156       -5.37552        0.30889
C          3.39122       -4.85252       -1.10236
C          2.23594       -3.88534       -1.14527
C          2.07364       -3.09606       -2.28027
C          1.05290       -2.18454       -2.38006
H          0.94237       -1.58654       -3.26571
H          2.77220       -3.20633       -3.09230
H          4.27700       -4.36653       -1.53128
H          4.20048       -4.58707        0.88657
H          2.64223       -6.22140        2.01498
H          1.75857       -3.96918        1.99395
C         -0.64531       -2.57310        0.94877
C         -0.24689       -1.64984        1.94960
C         -1.20028       -1.19418        2.86098
C         -2.48674       -1.66812        2.82224
C         -2.88741       -2.60526        1.87447
C         -4.32803       -3.06069        1.88786
C         -4.66732       -4.17032        0.87640
C         -3.88677       -3.99320       -0.43031
C         -2.37696       -4.02252       -0.15412
C         -1.96627       -3.05402        0.92469
H         -2.07367       -5.03180        0.14831
H         -4.15283       -3.03030       -0.88467
H         -5.74835       -4.20220        0.68050
H         -4.96493       -2.18903        1.69826
H         -3.21044       -1.30786        3.53381
H         -0.90604       -0.45580        3.58580
N          1.08020       -1.17874        2.00005
P          1.47744        0.28523        1.10803
C          2.52416       -0.03539       -0.30698
C          3.61376       -0.86533       -0.19049
C          4.44201       -1.06493       -1.28083
C          4.18908       -0.42624       -2.48814
C          3.08928        0.41532       -2.57982
C          2.26723        0.61526       -1.48713
H          1.42614        1.28211       -1.54750
H          2.87537        0.90863       -3.51243
C          5.05214       -0.67158       -3.67610
H          5.28872       -1.72499       -1.20089
H          3.81887       -1.34891        0.75113
C          2.38360        1.41883        2.15927
C          2.60776        1.07314        3.46903
C          3.29326        1.94053        4.30053
C          3.76205        3.15550        3.81806
C          3.51835        3.48755        2.49157
C          2.83269        2.61862        1.66206
H          2.64100        2.87201        0.63129
H          3.86424        4.43435        2.11342
C          4.47045        4.10612        4.71902
H          3.46136        1.68136        5.33181
H          2.23132        0.13118        3.83444
H          1.79521       -1.80617        1.65388
H         -1.68125       -1.39881       -0.73918
C         -0.55204        1.50399       -2.61041
C         -0.34553        0.88603       -3.81959
C          0.10017        1.62558       -4.90006
C          0.33810        2.98792       -4.77215
C          0.09049        3.59881       -3.54966
C         -0.35567        2.85741       -2.47165
H         -0.58035        3.32803       -1.52765
H          0.24484        4.65946       -3.44858
C          0.80100        3.78870       -5.93902
H          0.26587        1.14782       -5.85051
H         -0.54616       -0.16837       -3.91292
C         -2.86948        0.76485       -1.05143
C         -3.58012        1.39734       -2.04341
C         -4.94725        1.55886       -1.91457
C         -5.61215        1.08247       -0.79287
C         -4.87580        0.45302        0.20095
C         -3.50947        0.28947        0.06737
H         -2.93751       -0.20183        0.83716
H         -5.37862        0.10159        1.08539
C         -7.07906        1.28376       -0.63581
H         -5.50648        2.06251       -2.68445
H         -3.06307        1.76760       -2.91348
Cl        -2.06127        3.14066        0.49744
H          3.16685       -5.69441       -1.76810
H          1.92909       -6.59790        0.46367
H          4.41571       -6.21024        0.27018
H          0.44350       -4.96369        1.42873
H         -4.16950       -4.75827       -1.16703
H         -1.81684       -3.81171       -1.07342
H         -4.58014       -3.38705        2.90483
H         -4.42080       -5.14720        1.31127
H          6.04786       -1.00418       -3.37965
H          4.61807       -1.43976       -4.31759
H          5.16910        0.23617       -4.26977
H          5.19004        4.71125        4.16580
H          3.76256        4.78155        5.20124
H          5.01590        3.57585        5.50089
H          1.40439        4.63908       -5.61829
H          1.41142        3.18588       -6.61291
H         -0.04785        4.17296       -6.50621
H         -7.28709        2.21974       -0.11570
H         -7.57823        1.31886       -1.60515
H         -7.52822        0.47222       -0.06154
