171
-217.83369032
P         -1.56467        0.12893       -0.07332
P          1.78386       -0.53433       -0.14536
C         -0.85186        1.34916       -1.20086
C          0.98885       -1.25190       -1.60499
C         -0.08431        0.89878       -2.26786
C          0.49836        1.83502       -3.14348
C          0.26332        3.18461       -2.93909
C         -0.49526        3.61703       -1.87228
C         -1.04193        2.69550       -1.00132
C          1.20303       -2.60009       -1.77038
C          0.59202       -3.28184       -2.80524
C         -0.25899       -2.60796       -3.65467
C         -0.50978       -1.25630       -3.49116
C          0.14160       -0.55527       -2.45942
Cl         1.37027       -1.75311        2.84517
Cl        -1.65844       -2.45502        2.05943
C         -1.48137       -0.58671       -4.39926
C          1.35307        1.38582       -4.27751
H         -0.65185        4.67138       -1.71276
H         -1.59014        3.03535       -0.14118
H          1.84804       -3.12073       -1.07797
H          0.77099       -4.33615       -2.93921
H          0.68848        3.90122       -3.62100
H         -0.74732       -3.13362       -4.45773
C         -4.39960       -2.51448       -2.41618
C         -3.40194       -3.11708       -1.66019
C         -2.54633       -2.29408       -0.94015
C         -2.69111       -0.93023       -0.97829
C         -3.68111       -0.35111       -1.73256
C         -4.55911       -1.13459       -2.47109
H         -5.07229       -3.14438       -2.96707
H         -1.76233       -2.71346       -0.33611
H         -3.76652        0.72177       -1.75021
C         -3.99172        2.24015        3.16363
C         -3.16028        1.19011        3.53096
C         -2.43645        0.55669        2.53207
C         -2.53343        0.94985        1.21890
C         -3.39861        1.96076        0.87403
C         -4.13138        2.63874        1.83977
H         -4.55012        2.75136        3.92375
H         -1.81806       -0.28204        2.78968
H         -3.50491        2.23283       -0.16173
C          2.37150        3.93491        0.35992
C          3.10882        3.25131       -0.59910
C          2.87304        1.89095       -0.74652
C          1.94321        1.25003        0.03428
C          1.23546        1.94005        0.99172
C          1.42859        3.30547        1.16316
H          2.54576        4.98419        0.50564
H          3.44281        1.31769       -1.45736
H          0.53109        1.40929        1.60577
C          6.01376       -2.15864       -0.01375
C          5.27325       -2.15423        1.16336
C          3.97380       -1.67151        1.11022
C          3.44175       -1.21705       -0.06810
C          4.18450       -1.23060       -1.22275
C          5.49033       -1.70354       -1.21911
H          7.02122       -2.52685        0.00825
H          3.35990       -1.66211        1.99235
H          3.73825       -0.87326       -2.13632
Pd        -0.03297       -1.14540        1.20333
C         -3.08528       -5.19656       -3.03227
C         -3.29175       -4.64748       -1.60908
C         -4.58725       -5.22594       -1.01162
C         -2.10631       -5.10201       -0.73417
H         -3.91876       -4.93664       -3.68362
H         -2.17618       -4.79001       -3.47310
H         -2.99685       -6.28277       -3.02173
H         -4.53403       -6.31224       -0.94181
H         -4.75759       -4.83079       -0.01031
H         -5.45253       -4.97251       -1.62303
H         -2.03376       -6.18919       -0.71470
H         -1.16341       -4.71517       -1.11910
H         -2.22416       -4.76145        0.29431
C         -6.65442        0.21535       -2.28022
C         -5.68589       -0.46040       -3.26733
C         -6.47404       -1.47839       -4.11384
C         -5.09328        0.59966       -4.21575
H         -7.47326        0.70473       -2.80726
H         -7.08153       -0.51794       -1.59643
H         -6.14194        0.96815       -1.68305
H         -5.81750       -1.99802       -4.81164
H         -6.96529       -2.21891       -3.48305
H         -7.24834       -0.97932       -4.69644
H         -4.55721        1.37283       -3.66693
H         -4.39835        0.14328       -4.91968
H         -5.87925        1.08824       -4.79139
C         -3.89546        1.51869        5.94686
C         -3.03922        0.68373        4.97597
C         -1.56963        0.76435        5.43012
C         -3.51533       -0.78007        5.03532
H         -3.58765        2.56421        5.94079
H         -4.95164        1.46657        5.68326
H         -3.79244        1.15033        6.96750
H         -1.21530        1.79420        5.40754
H         -1.45671        0.39410        6.44881
H         -0.92098        0.16982        4.78780
H         -2.90143       -1.42175        4.40434
H         -3.46417       -1.16663        6.05290
H         -4.54645       -0.86352        4.69284
C         -4.13109        4.94228        0.86214
C         -5.02216        3.81689        1.41951
C         -5.83105        4.37288        2.60727
C         -6.01143        3.35452        0.33304
H         -3.57739        4.60888       -0.01486
H         -4.72859        5.80599        0.57114
H         -3.40846        5.26731        1.61049
H         -6.47600        5.19090        2.28649
H         -6.46650        3.60203        3.04299
H         -5.17287        4.76069        3.38454
H         -5.49021        3.03753       -0.56907
H         -6.61052        2.51645        0.68873
H         -6.68987        4.16089        0.05496
C          4.00620        3.63707       -2.91887
C          4.22169        3.91791       -1.42065
C          5.57714        3.33691       -0.97880
C          4.24484        5.44468       -1.21514
H          4.02920        2.56942       -3.13200
H          3.04420        4.02801       -3.24687
H          4.78287        4.11027       -3.51944
H          5.61034        2.25894       -1.13303
H          6.39687        3.78263       -1.54192
H          5.75065        3.52670        0.08024
H          4.46305        5.69990       -0.17842
H          5.01391        5.90635       -1.83434
H          3.28787        5.88958       -1.48777
C          1.70182        4.60368        3.28589
C          0.68626        4.11427        2.23795
C         -0.38055        3.26526        2.95144
C         -0.01533        5.32401        1.59180
H          2.21537        3.75987        3.74641
H          2.45542        5.24774        2.83397
H          1.20681        5.16963        4.07487
H         -1.12014        2.89756        2.24286
H          0.07089        2.41161        3.45555
H         -0.90826        3.85295        3.70242
H          0.69969        5.99379        1.11618
H         -0.72580        4.99940        0.83317
H         -0.56295        5.89948        2.33799
C          4.95871       -3.82357        3.00696
C          5.83052       -2.65832        2.50231
C          5.80072       -1.50915        3.52721
C          7.28231       -3.15603        2.36701
H          4.94637       -4.63702        2.28190
H          5.33956       -4.21628        3.94948
H          3.92946       -3.50636        3.17049
H          6.39142       -0.66378        3.17490
H          4.78372       -1.15815        3.69838
H          6.20787       -1.83031        4.48574
H          7.94118       -2.35681        2.02801
H          7.66039       -3.50990        3.32610
H          7.34922       -3.98365        1.66109
C          5.55522       -2.56077       -3.57364
C          6.29019       -1.69918       -2.52953
C          7.70830       -2.26929       -2.33592
C          6.41078       -0.25249       -3.04448
H          6.10892       -2.59405       -4.51175
H          5.43704       -3.58288       -3.21442
H          4.56279       -2.16514       -3.78693
H          8.25952       -2.26157       -3.27620
H          8.27473       -1.67696       -1.61753
H          7.67202       -3.30001       -1.98366
H          6.91464        0.37609       -2.31064
H          6.98338       -0.21438       -3.97098
H          5.43094        0.18129       -3.24087
H         -1.07496       -0.49293       -5.40724
H          0.74337        1.06170       -5.12143
H         -1.74145        0.41105       -4.04356
H         -2.40477       -1.16432       -4.46344
H          1.98938        0.55066       -3.97994
H          2.00341        2.18814       -4.62824
