72
-98.09851193
Fe         0.00100        2.76640       -0.03605
P          1.86140       -0.11078        0.05701
P         -1.85500       -0.07733       -0.06754
C          1.42308        1.55479        0.68744
C          0.45632        1.84767        1.73141
C          0.41787        3.28885        1.90970
C          1.40233        3.88684        1.02660
C          2.01547        2.81376        0.26313
C         -1.41315        1.57673       -0.72353
C         -1.99463        2.84583       -0.31475
C         -1.34299        3.89958       -1.07528
C         -0.39641        3.28349       -1.98781
C         -0.44003        1.84794       -1.76913
C          3.29165       -0.73989        1.05089
C          4.48982       -0.17374        0.27092
C          2.71712        0.03954       -1.58279
C          4.21201       -0.17089       -1.25674
C         -3.27675       -0.73565       -1.05338
C         -4.48193       -0.17971       -0.27662
C         -2.70893        0.08433        1.57094
C         -4.20138       -0.15065        1.25045
H         -0.13719        1.11707        2.28090
H         -0.20720        3.82591        2.62685
H          1.63448        4.95078        0.94475
H          2.80758        2.92530       -0.48040
H         -2.77925        2.97840        0.43351
H          0.14274        1.10122       -2.30953
Cl         1.55000       -3.10964        0.28755
Cl        -1.61012       -3.10910       -0.00584
Pd        -0.01315       -1.51343       -0.03689
H          3.28385       -1.83333        0.98259
C          3.22706       -0.30865        2.51058
H          2.53207        1.05987       -1.93839
C          2.16619       -0.97747       -2.57564
H          5.40440       -0.73957        0.50730
H          4.67970        0.85287        0.61514
H          4.82739        0.58665       -1.76427
H          4.53121       -1.13371       -1.67794
H         -1.56031        4.96790       -1.00365
H          0.23363        3.80470       -2.71216
H          4.19142       -0.52046        2.99304
H          2.37674       -1.98738       -2.19832
H         -3.25030       -1.82835       -0.97595
C         -3.22266       -0.31594       -2.51717
H         -2.53588        1.11184        1.91165
C         -2.14461       -0.91239        2.57714
H         -5.38730       -0.76424       -0.50270
H         -4.69040        0.83870       -0.63425
H         -4.82585        0.60616        1.74790
H         -4.50722       -1.11113        1.68669
H         -4.18737       -0.54089       -2.99295
H         -1.05012       -0.84401        2.58470
C          2.10159       -0.98835        3.27289
H          2.22897       -2.07246        3.28159
H          2.04366       -0.65270        4.31070
H          1.13772       -0.78708        2.80660
C          2.72612       -0.80503       -3.97965
H          3.81213       -0.91191       -3.99160
H          2.31669       -1.53979       -4.67663
H          2.49660        0.18634       -4.37500
C         -2.09509       -0.99121       -3.28036
H         -2.21086       -2.07668       -3.27760
H         -2.04853       -0.66553       -4.32193
H         -1.12982       -0.77441       -2.82401
C         -2.68746       -0.71250        3.98407
H         -2.27025       -1.43419        4.69002
H         -2.45252        0.28604        4.35759
H         -3.77335       -0.81814        4.01063
H          3.11545        0.78268        2.55348
H          1.07177       -0.90832       -2.59925
H         -3.12179        0.77603       -2.56957
H         -2.35933       -1.92974        2.22326
