105
-153.05846724
Cl         0.58540        3.82010        1.35176
Pd        -0.07458        2.03959        0.15203
P         -0.69978        0.21984       -1.27075
N          0.11335       -1.22261       -1.91419
C          0.18728       -2.54580       -1.49048
C         -0.13418       -2.99687       -0.18081
C          0.18812       -4.32135        0.18963
C          0.10492       -4.73295        1.64184
C         -0.06803       -6.24630        1.83068
C          1.01827       -7.00278        1.05972
C          0.96571       -6.67075       -0.44173
C          0.67861       -5.22138       -0.75995
C          0.90306       -4.77878       -2.05655
C          0.68712       -3.47125       -2.40618
H          0.91292       -3.13926       -3.40485
H          1.27851       -5.47530       -2.78721
H          1.91047       -6.95449       -0.92278
H          2.00243       -6.72789        1.45970
H         -0.05731       -6.51584        2.89628
H          1.02623       -4.40611        2.13908
C         -0.72779       -2.10557        0.85148
C          0.08451       -1.09538        1.42711
C         -0.38527       -0.38688        2.53298
C         -1.62821       -0.65183        3.04677
C         -2.45565       -1.61574        2.47750
C         -3.80840       -1.85840        3.09398
C         -4.39517       -3.23009        2.72967
C         -4.33173       -3.45509        1.21601
C         -2.88683       -3.37812        0.69349
C         -2.01554       -2.34000        1.36607
H         -2.41477       -4.36069        0.79868
H         -4.94123       -2.69340        0.71704
H         -5.42631       -3.32745        3.09810
H         -4.49065       -1.06431        2.76898
H         -1.98483       -0.09644        3.89753
H          0.23059        0.38197        2.96203
N          1.25080       -0.75048        0.75034
P          1.79689        0.87143        0.93019
C          2.92772        1.29533       -0.38890
C          3.17662        2.62061       -0.65553
C          3.96468        2.96576       -1.73789
C          4.49329        1.98461       -2.56641
C          4.23317        0.65150       -2.27632
C          3.44581        0.30797       -1.19231
H          3.22308       -0.72469       -0.97767
H          4.64481       -0.11584       -2.90944
C          5.34741        2.35433       -3.72872
H          4.16153        4.00186       -1.95400
H          2.71450        3.37549       -0.03871
C          2.56637        1.01848        2.54146
C          3.27138       -0.06044        3.01885
C          3.87378        0.00821        4.26291
C          3.76582        1.15608        5.03699
C          3.05491        2.23706        4.53281
C          2.45513        2.16468        3.29034
H          1.89283        2.99488        2.89818
H          2.97403        3.13580        5.12008
C          4.43374        1.24049        6.36535
H          4.43114       -0.83202        4.64031
H          3.33705       -0.95392        2.41763
H          1.10892       -0.88069       -0.25035
H          0.32659       -1.03917       -2.88675
C         -0.57719        1.35715       -2.66285
C         -1.68567        1.86146       -3.29973
C         -1.52955        2.73976       -4.35592
C         -0.26273        3.12217       -4.77727
C          0.84427        2.59352       -4.12782
C          0.68516        1.71525       -3.07180
H          1.54308        1.32014       -2.55276
H          1.83193        2.87739       -4.44867
C         -0.09378        4.05306       -5.92714
H         -2.39431        3.13818       -4.85846
H         -2.66832        1.57663       -2.96203
C         -2.43549       -0.19399       -1.09000
C         -3.20379        0.29782       -0.06219
C         -4.55423        0.00714       -0.01191
C         -5.14273       -0.79023       -0.98395
C         -4.35003       -1.28420       -2.01071
C         -2.99951       -0.98659       -2.06116
H         -2.37893       -1.36565       -2.85804
H         -4.79720       -1.89866       -2.77323
C         -6.60250       -1.08209       -0.94614
H         -5.16231        0.40626        0.78169
H         -2.74690        0.91483        0.69430
Cl        -2.04572        3.00433       -0.32674
H          0.19759       -7.28592       -0.92564
H         -1.05510       -6.54823        1.45870
H          0.92749       -8.08585        1.22374
H         -0.69768       -4.19037        2.15283
H         -4.79200       -4.41632        0.94743
H         -2.88676       -3.17802       -0.38526
H         -3.73125       -1.75289        4.18370
H         -3.82334       -4.01680        3.23788
H          5.25294        1.62475       -4.53428
H          5.06484        3.32833       -4.13077
H          6.39774        2.40160       -3.43816
H          3.89226        1.90843        7.03670
H          4.48436        0.26128        6.84353
H          5.45188        1.61856        6.26344
H         -0.92941        4.75107       -5.99437
H          0.81994        4.64051       -5.82669
H         -0.03844        3.50201       -6.86694
H         -6.81385       -2.08063       -1.33145
H         -6.98914       -1.03185        0.07279
H         -7.15633       -0.36323       -1.55138
