64
-97.20898763
Cl        -1.51403       -1.61406       -2.49108
Cl         1.67632       -1.58500       -2.79528
P          1.98155       -0.58654        0.26598
C          2.26629       -2.23481        1.05706
C          3.73783       -0.09262       -0.06889
P         -1.30367       -0.16171        0.39009
C          1.23987        0.62756        1.41502
C         -0.19425        0.83741        1.45512
C         -0.45030        1.97748        2.32339
C          0.82696        2.45883        2.82163
C          1.87434        1.61404        2.27485
H         -1.42623        2.41382        2.54196
H          0.97302        3.29977        3.50362
Pd         0.21805       -0.99685       -1.20114
H          2.94751        1.71768        2.44674
C         -4.91285        2.32607       -0.85002
C         -4.56791        2.21559        0.48256
C         -3.48023        1.44422        0.85169
C         -2.74103        0.79524       -0.11122
C         -3.10017        0.88303       -1.43698
C         -4.18306        1.65564       -1.81132
H         -5.75915        2.92775       -1.13906
H         -5.14514        2.72777        1.23480
H         -3.21398        1.33209        1.89020
H         -2.54788        0.32119       -2.17091
H         -4.46112        1.72661       -2.85011
C         -2.70299       -3.90449        2.54901
C         -2.36011       -2.77905        3.27327
C         -1.93959       -1.63733        2.61457
C         -1.86405       -1.63295        1.24089
C         -2.20801       -2.74924        0.51571
C         -2.62890       -3.89187        1.16974
H         -3.03053       -4.79436        3.06145
H         -2.41884       -2.78939        4.34926
H         -1.66409       -0.75085        3.16361
H         -2.14164       -2.71589       -0.55968
H         -2.89762       -4.76880        0.60400
C          4.07741       -0.15218       -1.54170
H          3.85773        0.93040        0.31121
C          4.54164       -1.09770        0.77964
H          4.73090       -0.67761        1.77844
C          3.78714       -2.44687        0.92326
H          5.53281       -1.25289        0.32893
C          1.77629       -2.21918        2.48869
H          1.70898       -2.97471        0.46622
H          4.15841       -3.00847        1.79261
H          4.00168       -3.07860        0.04900
H          2.30049       -1.45416        3.06500
H          0.70904       -1.99421        2.54044
H          1.94276       -3.18018        2.98115
H          5.11788        0.12532       -1.72460
H          3.93361       -1.16342       -1.92546
H          3.44420        0.51405       -2.12995
Fe         0.76454        2.49018        0.78354
C          1.13669        2.27032       -1.22076
C          2.07736        3.21207       -0.64499
C          1.32026        4.31066       -0.07062
C         -0.09107        4.04716       -0.28887
C         -0.20094        2.77787       -0.98416
H          1.38722        1.36381       -1.77456
H          3.16612        3.13199       -0.67616
H          1.73982        5.19148        0.41986
H         -0.92213        4.68656        0.01667
H         -1.13017        2.30670       -1.30582
