105
-153.06589362
Cl        -0.00308        1.91200        3.08099
Pd        -0.45065        1.32282        0.95303
P         -1.11085        0.50009       -1.15873
N         -0.72401       -1.01345       -1.97438
C          0.19261       -2.00382       -1.62417
C          0.32416       -2.48090       -0.29587
C          1.28481       -3.47377       -0.01178
C          1.40032       -3.99439        1.40137
C          2.22604       -5.28238        1.54465
C          3.49948       -5.21402        0.69704
C          3.15050       -5.02724       -0.78681
C          2.08982       -3.98412       -1.03419
C          1.90434       -3.53615       -2.33606
C          0.97215       -2.57571       -2.62868
H          0.85272       -2.22639       -3.63943
H          2.51619       -3.94759       -3.12101
H          4.04907       -4.76026       -1.35784
H          4.11597       -4.37167        1.03540
H          2.47028       -5.47512        2.59887
H          1.84361       -3.20699        2.02167
C         -0.67773       -2.11918        0.73553
C         -0.25771       -1.52946        1.95854
C         -1.19323       -1.39283        2.98823
C         -2.49090       -1.80139        2.82286
C         -2.92263       -2.37182        1.63164
C         -4.35658       -2.83709        1.54638
C         -4.81699       -3.20974        0.12806
C         -3.73519       -4.01023       -0.60137
C         -2.43632       -3.19762       -0.70640
C         -2.01543       -2.53254        0.58206
H         -1.62029       -3.84068       -1.05900
H         -4.08416       -4.32180       -1.59610
H         -5.03354       -2.29665       -0.43984
H         -5.00641       -2.05840        1.96493
H         -3.19606       -1.68372        3.62825
H         -0.88435       -0.93475        3.91142
N          1.04043       -1.03230        2.14574
P          1.61096        0.19075        1.01230
C          2.61236       -0.35202       -0.35938
C          2.39561        0.21496       -1.59038
C          3.20591       -0.13213       -2.65568
C          4.23984       -1.04381       -2.48642
C          4.46229       -1.57782       -1.22353
C          3.64959       -1.22995       -0.15941
H          3.81747       -1.63634        0.82533
H          5.27392       -2.27017       -1.07918
C          5.11609       -1.41647       -3.63069
H          3.03626        0.30111       -3.62640
H          1.58798        0.91678       -1.71109
C          2.55185        1.48654        1.82554
C          3.25504        1.21568        2.97459
C          3.97928        2.22178        3.58818
C          4.01128        3.50039        3.04764
C          3.29596        3.75189        1.88458
C          2.57310        2.74476        1.27132
H          2.02012        2.93609        0.36466
H          3.30481        4.74286        1.46390
C          4.76322        4.59219        3.72590
H          4.52270        2.01964        4.49535
H          3.23988        0.21971        3.38651
H          1.19354       -0.60419        3.04960
H         -0.99837       -0.92568       -2.94483
C         -0.62758        1.86758       -2.22674
C         -0.89659        3.16175       -1.85078
C         -0.51194        4.21421       -2.65892
C          0.15210        3.97895       -3.85466
C          0.40207        2.66619       -4.22987
C          0.01296        1.61665       -3.41807
H          0.22334        0.60060       -3.70639
H          0.90509        2.47094       -5.16158
C          0.54968        5.11056       -4.73724
H         -0.72628        5.22747       -2.36480
H         -1.41280        3.34246       -0.92314
C         -2.90620        0.52548       -1.08885
C         -3.59432        0.78783       -2.24976
C         -4.97784        0.80692       -2.24184
C         -5.68065        0.56199       -1.07004
C         -4.96767        0.30827        0.09288
C         -3.58577        0.27523        0.07791
H         -3.02984        0.07301        0.97914
H         -5.50229        0.14149        1.01218
C         -7.16860        0.60969       -1.04787
H         -5.52004        1.01870       -3.14750
H         -3.04578        0.98143       -3.15836
Cl        -2.28951        2.62524        0.96354
H          2.80764       -5.97967       -1.20842
H          1.62186       -6.13946        1.22167
H          4.11724       -6.11098        0.84596
H          0.39098       -4.15038        1.80263
H         -3.53913       -4.94003       -0.05279
H         -2.55247       -2.42193       -1.47197
H         -4.47762       -3.70220        2.20933
H         -5.76315       -3.76846        0.15712
H          4.57398       -1.35993       -4.57573
H          5.97579       -0.74808       -3.69446
H          5.48866       -2.43634       -3.52442
H          5.62475        4.19971        4.26790
H          5.13112        5.32375        3.00512
H          4.12545        5.11462        4.44019
H         -0.25668        5.36635       -5.42592
H          0.78825        6.00023       -4.15271
H          1.43062        4.85801       -5.32907
H         -7.58564        0.39360       -2.03236
H         -7.57399       -0.12312       -0.34875
H         -7.51930        1.59638       -0.74272
