111
-148.55377889
P         -2.52971        2.07796        0.82424
P          0.13918        0.40780        0.48141
C         -1.45633        1.78711        2.25877
C         -0.26999        1.10587        2.09185
C         -3.33522        3.74341        0.90994
C         -2.67985        4.73616       -0.02511
C         -1.81859        2.23770        3.51228
H         -2.75712        2.75023        3.64463
C         -0.98328        2.01381        4.59324
H         -1.26540        2.36627        5.57192
C          0.20917        1.33755        4.42063
H          0.85810        1.16139        5.26267
C          0.56443        0.87667        3.16581
H          1.48239        0.32970        3.01628
Pd        -1.27137        1.45604       -1.01667
Cl        -2.91453        2.39196       -2.22948
Cl        -0.06248        0.70288       -2.75206
C         -4.80698        3.42346        0.59069
C         -4.02671        0.99031        0.77539
H         -3.15729        5.71687        0.03569
H         -1.61946        4.85936        0.20742
H         -2.75033        4.40118       -1.06040
H         -4.96382        3.53097       -0.49148
H         -5.47235        4.16313        1.06155
H         -4.08010        0.59343       -0.24731
C         -5.18220        1.97771        1.02651
C         -3.92368       -0.13394        1.78321
H         -3.23972        4.08040        1.94981
H         -5.42664        1.97061        2.09761
H         -6.09470        1.63759        0.51373
H         -4.81839       -0.76079        1.77615
H         -3.06249       -0.77240        1.57525
H         -3.80223        0.26131        2.79346
C         -1.20830       -3.94213        0.27160
C         -1.09625       -3.30451        1.53413
C         -0.66213       -1.98983        1.56980
C         -0.42462       -1.29303        0.41426
C         -0.64389       -1.87154       -0.80748
C         -1.06692       -3.18333       -0.91760
O         -1.42550       -5.34387        0.19945
C         -1.41251       -4.02543        2.85393
H         -0.49998       -1.48988        2.50810
H         -0.47222       -1.27350       -1.68480
C         -1.33223       -3.76283       -2.31546
C          4.51209        0.78309       -0.73797
C          3.78656       -0.39921       -1.04045
C          2.45871       -0.46576       -0.65612
C          1.87170        0.54467        0.05915
C          2.59874        1.63782        0.45221
C          3.93616        1.76574        0.11172
O          5.77270        1.01634       -1.34519
C          4.37877       -1.61485       -1.77317
H          1.85802       -1.31538       -0.93052
H          2.10494        2.40141        1.02922
C          4.71556        2.95808        0.69260
C         -2.53547       -5.06100        2.66224
C         -0.14171       -4.71257        3.37564
C         -1.90409       -3.02206        3.92234
C         -0.02917       -4.35537       -2.87355
C         -2.43175       -4.83905       -2.27131
C         -1.82314       -2.65706       -3.27867
C         -0.22986       -6.11314        0.16536
H         -2.80595       -5.52604        3.60989
H         -3.42634       -4.58865        2.24953
H         -2.23245       -5.85315        1.98198
H         -0.33377       -5.22502        4.31798
H          0.23000       -5.44615        2.66437
H          0.64983       -3.98251        3.54323
H         -2.23976       -3.54490        4.81763
H         -1.11397       -2.33859        4.22958
H         -2.74062       -2.43375        3.54678
H          0.34874       -5.14975       -2.23431
H         -0.18337       -4.76875       -3.86989
H          0.74337       -3.58983       -2.94186
H         -2.66371       -5.20368       -3.27165
H         -2.12737       -5.69354       -1.67225
H         -3.34574       -4.43546       -1.83689
H         -2.13916       -3.08450       -4.22986
H         -2.67158       -2.12113       -2.85400
H         -1.03843       -1.93508       -3.49928
H         -0.22125       -6.81133        1.00222
H         -0.19092       -6.68942       -0.75882
H          0.64359       -5.46248        0.22502
C          5.66716        1.69442       -2.58600
C          3.83057       -1.65911       -3.20936
C          5.91642       -1.58514       -1.80726
C          3.96788       -2.91086       -1.03802
C          4.40555        3.08760        2.20071
C          6.23860        2.78182        0.56216
C          4.28420        4.24921       -0.02218
H          4.20815       -2.53019       -3.74417
H          2.74219       -1.71043       -3.20897
H          4.11887       -0.77115       -3.76833
H          6.31750       -2.49889       -2.24515
H          6.28168       -0.74928       -2.39912
H          6.32109       -1.48374       -0.80087
H          2.89209       -3.07488       -1.07278
H          4.44166       -3.78112       -1.49152
H          4.26930       -2.87128        0.00832
H          5.00413        3.87750        2.65376
H          3.35971        3.33061        2.38061
H          4.62934        2.15633        2.72033
H          6.77202        3.58751        1.06602
H          6.55511        1.83680        1.00218
H          6.54838        2.78442       -0.48015
H          4.50058        4.20072       -1.08756
H          4.80601        5.11384        0.38716
H          3.21389        4.41830        0.09157
H          6.66307        1.82779       -3.00897
H          5.05639        1.11604       -3.27712
H          5.20393        2.66889       -2.44152
