72
-108.39410347
Cl        -1.86737        0.49431        2.78055
Cl         1.10627       -0.38769        2.68639
P          1.14057       -1.11373       -0.26531
P         -2.27399        0.08363       -0.39884
C         -3.30113       -1.50361       -0.25981
C         -3.69729       -1.72703        1.20070
C         -4.54284       -1.38619       -1.13621
C         -3.30592        1.64376       -0.05506
C         -4.07440        2.06035       -1.31508
C         -1.45163        0.43045       -2.06202
C         -1.48779       -0.70722       -3.06133
C          1.13337        0.24938       -1.47220
C         -0.04060        0.98078       -1.95628
C          0.47247        2.08365       -2.77114
C          1.91929        1.98101       -2.82977
C          2.32797        0.80507       -2.08414
C         -2.45384       -2.69180       -0.69725
H         -4.21086       -2.68292        1.31612
H         -2.82166       -1.74550        1.84962
H         -5.09874       -2.32525       -1.14217
H         -4.28459       -1.14797       -2.16706
C         -4.29794        1.45725        1.08864
H         -4.58783        1.21590       -1.77233
H         -3.42138        2.50954       -2.06270
H         -2.06354        1.23994       -2.47067
H         -0.84102       -1.51875       -2.73650
H         -1.11120       -0.38384       -4.03395
H         -2.49360       -1.09614       -3.21534
H         -0.14069        2.78989       -3.33444
H          2.58248        2.63259       -3.40392
Pd        -0.56092       -0.33330        1.15686
H          3.34786        0.45776       -1.90628
C         -2.29807        2.72153        0.31221
H         -4.82693        2.81237       -1.07191
H         -4.76034        2.41013        1.35013
H         -5.10437        0.78000        0.81337
H         -3.80943        1.08116        1.98484
H         -1.53369        2.81581       -0.46053
H         -2.78568        3.69189        0.42605
H         -1.81044        2.48350        1.25717
H         -4.37220       -0.95932        1.56897
H         -5.21787       -0.61376       -0.77114
H         -1.52770       -2.72916       -0.12640
H         -2.98421       -3.62974       -0.52384
H         -2.20950       -2.65849       -1.75557
C          2.81748       -1.22166        0.41215
C          3.23229       -2.15832        1.32594
C          4.57405       -1.89522        1.60214
C          4.92488       -0.80748        0.84136
O          3.85592       -0.38414        0.10577
H          2.62465       -2.93268        1.76441
H          5.20919       -2.43689        2.28391
H          5.90122       -0.33932        0.81868
C          0.74407       -2.71672       -0.98782
C          0.67694       -3.87620       -0.25513
C          0.35124       -4.90250       -1.14305
C          0.23329       -4.32482       -2.38332
O          0.46773       -2.98174       -2.30122
H          0.83088       -3.96673        0.80807
H          0.21824       -5.94450       -0.90203
H         -0.01185       -4.84366       -3.30172
Fe         1.32708        2.12962       -0.91279
C          3.01165        2.90580       -0.03663
C          2.28440        2.03198        0.86387
C          0.96639        2.59389        1.06688
C          0.87134        3.80699        0.27715
C          2.14096        4.01064       -0.39325
H          4.04356        2.76561       -0.36675
H          2.66549        1.11764        1.32169
H          0.21284        2.19302        1.74656
H          0.02150        4.49155        0.25046
H          2.39839        4.84845       -1.04386
