87
-129.18635787
P         -1.55864       -0.31264       -0.36371
P          1.69607        0.39313        0.06348
C         -1.21075        0.93250       -1.61110
C          1.55492       -0.70967       -1.36265
C         -0.14931        0.74951       -2.48900
C          0.11452        1.74463       -3.45130
C         -0.69586        2.86683       -3.50138
C         -1.74613        3.02691       -2.62235
C         -2.00050        2.05409       -1.67607
C          2.30207       -1.86242       -1.30591
C          2.19362       -2.81898       -2.29581
C          1.31685       -2.62144       -3.33963
C          0.54600       -1.47443       -3.41571
C          0.67409       -0.48726       -2.41938
Cl         1.10781        0.25628        3.24303
Cl        -1.49488       -1.60072        2.59029
H         -2.36355        3.90889       -2.67020
H         -2.82176        2.16853       -0.98831
H          2.97190       -2.02027       -0.47680
H          2.78209       -3.72039       -2.24454
H         -0.49084        3.62533       -4.23769
H          1.21644       -3.37003       -4.10719
C         -2.15512       -4.37351       -2.30424
C         -1.25037       -4.24801       -1.25890
C         -1.10304       -3.00501       -0.65572
C         -1.81963       -1.92151       -1.10737
C         -2.70730       -2.05059       -2.14948
C         -2.88037       -3.28495       -2.74796
H         -2.28653       -5.33513       -2.77034
C         -0.47505       -5.41987       -0.76947
H         -0.41760       -2.88644        0.16644
H         -3.25072       -1.18488       -2.49459
H         -3.57566       -3.39488       -3.56396
C         -5.15405        0.93601        2.14201
C         -5.21307       -0.22007        1.38891
C         -4.12925       -0.59812        0.61913
C         -2.99702        0.18184        0.60647
C         -2.93510        1.33191        1.35917
C         -4.01601        1.73091        2.13474
H         -5.99433        1.22740        2.74884
H         -6.10042       -0.83140        1.40622
H         -4.15669       -1.50488        0.03758
H         -2.03887        1.92840        1.34877
C         -3.92728        2.96401        2.96327
C          5.60748       -0.34346        2.27507
C          5.45930        0.78299        1.49032
C          4.27046        1.00554        0.82111
C          3.23940        0.10333        0.94280
C          3.38581       -1.02020        1.72347
C          4.57592       -1.26389        2.39816
H          6.52887       -0.51415        2.80539
H          6.26735        1.49068        1.40264
H          4.13882        1.88365        0.21032
H          2.56273       -1.70767        1.82918
C          4.71418       -2.45999        3.27265
C          1.02838        4.81085       -0.75950
C          1.91142        4.09763       -1.54674
C          2.13197        2.75613       -1.29547
C          1.46633        2.14259       -0.26085
C          0.61119        2.85795        0.54556
C          0.37291        4.20501        0.30359
H          0.84143        5.85100       -0.96534
H          2.41813        4.58214       -2.36516
H          2.80289        2.17894       -1.91170
H          0.14231        2.37273        1.38414
C         -0.60037        4.96224        1.13627
Pd        -0.05026       -0.34574        1.41927
C          1.24484        1.61754       -4.41260
C         -0.40595       -1.31675       -4.55058
H          1.80978        2.54880       -4.47372
H          1.93875        0.83150       -4.11270
H          0.87955        1.38135       -5.41279
H         -0.94471       -2.24681       -4.73710
H         -1.14835       -0.54467       -4.34603
H          0.12119       -1.04532       -5.46596
H         -0.30197       -6.14046       -1.57004
H          0.49869       -5.11204       -0.38524
H         -1.00871       -5.92870        0.03441
H         -3.28511        2.80091        3.82998
H         -3.51118        3.79167        2.38704
H         -4.90921        3.27175        3.32527
H          4.30977       -2.26001        4.26586
H          4.17699       -3.31361        2.85667
H          5.76002       -2.74897        3.38566
H         -1.59704        4.92522        0.69401
H         -0.66346        4.54675        2.14310
H         -0.30978        6.00974        1.22727
