105
-153.06112575
Cl         0.22897        3.41524        1.86445
Pd        -0.16189        1.88810        0.25732
P         -0.73759        0.24614       -1.34626
N          0.14048       -1.16426       -1.96186
C          0.21905       -2.48954       -1.54414
C         -0.12383       -2.95438       -0.24506
C          0.17837       -4.28653        0.11371
C         -0.00080       -4.71699        1.55195
C          0.78508       -5.98393        1.91947
C          0.55173       -7.08009        0.87595
C          1.00669       -6.61782       -0.51799
C          0.68987       -5.17537       -0.83424
C          0.95019       -4.71596       -2.11817
C          0.73927       -3.40522       -2.45852
H          0.98746       -3.06234       -3.44815
H          1.35257       -5.40179       -2.84462
H          2.08942       -6.76175       -0.61613
H          1.06184       -8.00930        1.16671
H          1.85546       -5.74702        1.96484
H          0.29319       -3.88857        2.20903
C         -0.70573       -2.07156        0.80169
C          0.13238       -1.10178        1.41338
C         -0.31621       -0.43041        2.55156
C         -1.56947       -0.67362        3.05060
C         -2.42873       -1.58299        2.44042
C         -3.79169       -1.79200        3.05905
C         -4.74721       -2.68864        2.25061
C         -3.99503       -3.82995        1.55844
C         -2.91899       -3.26283        0.62292
C         -1.99778       -2.28865        1.31315
H         -2.34213       -4.07060        0.15834
H         -4.68770       -4.48557        1.01194
H         -5.25943       -2.08503        1.49177
H         -4.25071       -0.80933        3.22671
H         -1.90970       -0.14248        3.92335
H          0.32015        0.30410        3.01011
N          1.29055       -0.73215        0.73482
P          1.83186        0.88728        0.99595
C          2.90271        1.41454       -0.33445
C          3.12972        2.75800       -0.51585
C          3.86984        3.18573       -1.60317
C          4.37295        2.27043       -2.51859
C          4.13778        0.91747       -2.31133
C          3.39744        0.49079       -1.22374
H          3.19349       -0.55685       -1.07258
H          4.53044        0.20067       -3.01214
C          5.17519        2.72870       -3.68633
H          4.05041        4.23631       -1.75355
H          2.69782        3.46344        0.17692
C          2.67697        0.93670        2.57611
C          3.51679       -0.10740        2.88258
C          4.18947       -0.11607        4.09212
C          4.01810        0.91816        5.00271
C          3.17008        1.96630        4.67063
C          2.49994        1.97125        3.46251
H          1.82809        2.77250        3.20721
H          3.03724        2.77798        5.36539
C          4.76068        0.92162        6.29361
H          4.85235       -0.92868        4.33565
H          3.63469       -0.91367        2.17517
H          1.13609       -0.83124       -0.26825
H          0.35982       -0.97564       -2.93221
C         -0.60737        1.41519       -2.70752
C         -1.70653        1.83169       -3.41930
C         -1.55274        2.74033       -4.45004
C         -0.29619        3.23152       -4.77901
C          0.80034        2.80334       -4.04360
C          0.64289        1.89454       -3.01353
H          1.49161        1.56753       -2.43627
H          1.77762        3.19039       -4.27603
C         -0.13434        4.23489       -5.86718
H         -2.41201        3.07971       -5.00285
H         -2.68224        1.45630       -3.15891
C         -2.46867       -0.19017       -1.20173
C         -2.98746       -1.05003       -2.14031
C         -4.33172       -1.37723       -2.10640
C         -5.16209       -0.84543       -1.12957
C         -4.61809        0.02013       -0.18947
C         -3.27612        0.34953       -0.22897
H         -2.85882        1.03319        0.49180
H         -5.25219        0.43921        0.57290
C         -6.60237       -1.22080       -1.08474
H         -4.74297       -2.05392       -2.83580
H         -2.33560       -1.46395       -2.89357
Cl        -1.85896        3.15883       -0.49649
H          0.55707       -7.25246       -1.29236
H          0.51678       -6.33627        2.92556
H         -0.51677       -7.32863        0.84715
H         -1.06519       -4.88302        1.74862
H         -3.52069       -4.46519        2.31674
H         -3.40199       -2.74599       -0.21196
H         -3.64937       -2.21978        4.05874
H         -5.54580       -3.08536        2.89315
H          5.03115        2.07078       -4.54457
H          4.88785        3.73609       -3.99088
H          6.23892        2.74026       -3.44508
H          4.91564       -0.09388        6.66090
H          5.73874        1.39030        6.17641
H          4.21404        1.47092        7.06145
H         -0.88301        4.09335       -6.64789
H         -0.24139        5.24812       -5.47758
H          0.84884        4.15551       -6.33320
H         -7.07384       -1.07086       -2.05704
H         -6.72123       -2.27024       -0.81105
H         -7.14777       -0.62072       -0.35508
