111
-148.55504554
P         -2.53032        2.10449        0.84531
P          0.11497        0.39374        0.51125
C         -1.45990        1.81327        2.27880
C         -0.29346        1.09708        2.12014
C         -3.27397        3.79899        0.87066
C         -2.64086        4.69197       -0.17403
C         -1.81143        2.28858        3.52595
H         -2.73494        2.83029        3.64901
C         -0.98446        2.05258        4.61075
H         -1.25777        2.42354        5.58508
C          0.18823        1.34022        4.44721
H          0.83087        1.15505        5.29213
C          0.53300        0.85694        3.19768
H          1.43764        0.28676        3.05423
Pd        -1.32319        1.41190       -0.99381
Cl        -2.99971        2.15542       -2.28112
Cl         0.12264        0.84461       -2.61799
C         -4.77351        3.51995        0.65527
C         -4.06405        1.06981        0.86156
H         -2.78273        4.27929       -1.17393
H         -3.08111        5.69182       -0.16484
H         -1.56508        4.79248       -0.01119
H         -4.99655        3.60488       -0.41723
H         -5.38276        4.29415        1.14598
H         -4.17312        0.67207       -0.15638
C         -5.17033        2.10045        1.15314
C         -3.96120       -0.05488        1.86901
H         -3.10055        4.20056        1.87712
H         -5.35076        2.12890        2.23659
H         -6.12195        1.77805        0.70376
H         -4.87568       -0.65189        1.89691
H         -3.12928       -0.72153        1.63174
H         -3.79004        0.33807        2.87290
C         -1.19277       -3.95870        0.20745
C         -1.13905       -3.33665        1.48177
C         -0.72345       -2.01737        1.55216
C         -0.44305       -1.30607        0.41547
C         -0.60279       -1.87024       -0.82224
C         -1.01271       -3.18316       -0.96604
O         -1.38648       -5.36236        0.11111
C         -1.49064       -4.08331        2.77800
H         -0.60373       -1.52711        2.50193
H         -0.38963       -1.26056       -1.68314
C         -1.22356       -3.74161       -2.38154
C          4.49191        0.78427       -0.68018
C          3.81889       -0.45246       -0.84773
C          2.48882       -0.52781       -0.47323
C          1.85099        0.53771        0.10537
C          2.52365        1.70375        0.36062
C          3.85971        1.84441        0.02004
O          5.77956        0.97445       -1.24830
C          4.48352       -1.68977       -1.47084
H          1.92269       -1.42521       -0.64885
H          1.98311        2.51119        0.82395
C          4.59025        3.14687        0.38301
C         -2.02222       -3.10368        3.84905
C         -2.59875       -5.12338        2.53213
C         -0.23140       -4.77122        3.32617
C         -1.71871       -2.62848       -3.33419
C          0.11022       -4.28692       -2.91461
C         -2.29420       -4.84745       -2.39152
C         -0.17786       -6.11178        0.09578
H         -1.24701       -2.42021        4.19224
H         -2.85198       -2.51509        3.45926
H         -2.38033       -3.64550        4.72414
H         -2.89432       -5.60858        3.46202
H         -3.48036       -4.65000        2.10115
H         -2.26825       -5.90000        1.84668
H         -0.44724       -5.29748        4.25565
H          0.16377       -5.49342        2.61592
H          0.55124       -4.03963        3.52586
H         -1.99572       -3.04302       -4.30308
H         -2.59369       -2.12648       -2.92210
H         -0.94973       -1.87938       -3.51621
H          0.85981       -3.49699       -2.95575
H          0.49730       -5.07698       -2.27522
H         -0.00714       -4.69240       -3.91917
H         -2.48809       -5.19617       -3.40556
H         -1.98407       -5.70656       -1.80234
H         -3.23062       -4.47792       -1.97492
H         -0.09069       -6.65024       -0.84765
H          0.68152       -5.45102        0.21711
H         -0.19240       -6.84220        0.90465
C          5.75409        1.48310       -2.57616
C          5.99036       -1.72981       -1.15957
C          3.87024       -2.98713       -0.89408
C          4.25421       -1.67332       -2.98989
C          4.41785        4.16143       -0.75748
C          4.00609        3.75552        1.67833
C          6.08588        2.89146        0.64445
H          6.44713       -2.63879       -1.55025
H          6.51025       -0.88430       -1.60276
H          6.16068       -1.69965       -0.08391
H          2.83667       -3.12175       -1.20918
H          4.42361       -3.86163       -1.23558
H          3.89788       -2.97798        0.19521
H          4.69637       -2.55037       -3.46175
H          3.18848       -1.66761       -3.21785
H          4.69328       -0.78867       -3.44496
H          4.83766        3.78471       -1.68706
H          3.36244        4.36968       -0.93146
H          4.91366        5.10261       -0.52130
H          4.60228        4.60559        2.00938
H          2.98923        4.11657        1.53211
H          3.99691        3.01986        2.48222
H          6.59045        2.53593       -0.25041
H          6.21651        2.13993        1.42233
H          6.58895        3.80324        0.96552
H          4.72545        1.64615       -2.90048
H          6.30255        2.42402       -2.61789
H          6.23912        0.77612       -3.24895
