111
-148.54647560
P         -2.50048        2.02152       -0.47209
P          0.04256        0.39445        0.46888
C         -1.90015        2.19812        1.22859
C         -0.76992        1.51530        1.62085
C         -2.84829        3.68909       -1.19904
C         -1.88348        4.02672       -2.31448
C         -2.54579        3.02917        2.12166
H         -3.41918        3.57550        1.80546
C         -2.06363        3.16068        3.41255
H         -2.56865        3.80755        4.11122
C         -0.93583        2.46589        3.80581
H         -0.56176        2.56659        4.81134
C         -0.28660        1.63929        2.90627
H          0.59201        1.08530        3.19734
Pd        -1.07499        0.55523       -1.55908
Cl        -2.08219        1.07677       -3.48910
Cl         0.42461       -0.89595       -2.38608
C         -4.32764        3.59755       -1.63588
C         -4.16304        1.23175       -0.66263
H         -0.84655        3.96432       -1.97557
H         -1.99928        3.33458       -3.14875
H         -2.05386        5.03454       -2.70044
H         -4.45338        4.10697       -2.60201
H         -4.96157        4.15262       -0.92909
H         -3.99061        0.21563       -1.04342
C         -4.82687        2.12704       -1.72884
C         -4.91464        1.18935        0.64995
H         -2.72938        4.40507       -0.37424
H         -5.92072        2.07974       -1.62219
H         -4.60717        1.73213       -2.73196
H         -5.87853        0.68579        0.54426
H         -4.34222        0.66749        1.41897
H         -5.11079        2.19903        1.01426
C         -1.27752       -3.89362        1.21443
C          0.01960       -3.65652        0.69101
C          0.41724       -2.34479        0.49098
C         -0.39087       -1.29987        0.85408
C         -1.60324       -1.52291        1.45436
C         -2.05435       -2.80962        1.69813
O         -1.82094       -5.20549        1.19844
C          0.96459       -4.79337        0.27361
H          1.35026       -2.12006        0.00450
H         -2.20744       -0.67051        1.71316
C         -3.38823       -3.00094        2.43600
C          4.48733        1.30116        0.07095
C          3.56700        1.79750       -0.88686
C          2.22262        1.51607       -0.71019
C          1.79683        0.70634        0.31023
C          2.69379        0.13285        1.17375
C          4.05243        0.38084        1.05890
O          5.83250        1.75705        0.06339
C          3.99983        2.64150       -2.09590
H          1.48312        1.93151       -1.37337
H          2.31423       -0.50963        1.94923
C          5.02699       -0.31903        2.01954
C          0.73644       -5.11742       -1.21064
C          2.43791       -4.37287        0.46964
C          0.74285       -6.05174        1.13245
C         -3.58240       -1.89053        3.49371
C         -4.54087       -2.93056        1.42280
C         -3.42674       -4.34262        3.19018
C         -2.55069       -5.50684        0.01520
H          0.91542       -4.23758       -1.82831
H          1.40665       -5.90845       -1.54586
H         -0.28557       -5.44380       -1.38910
H          2.60606       -4.03212        1.49068
H          3.10824       -5.21138        0.28220
H          2.72562       -3.57503       -0.21315
H         -0.25238       -6.46326        0.98505
H          1.46153       -6.83067        0.87896
H          0.85440       -5.81847        2.19080
H         -3.71375       -0.91182        3.03671
H         -4.46843       -2.08268        4.09837
H         -2.72410       -1.84068        4.16318
H         -4.53911       -1.97356        0.90180
H         -4.45367       -3.71427        0.67347
H         -5.50464       -3.04351        1.91855
H         -3.37682       -5.18540        2.50570
H         -2.58479       -4.42070        3.87719
H         -4.34589       -4.44153        3.76714
H         -3.58333       -5.74414        0.27036
H         -2.53246       -4.65707       -0.66848
H         -2.11096       -6.37556       -0.47462
C          6.05013        2.92683        0.84225
C          3.97044        4.12961       -1.71666
C          5.40808        2.24325       -2.57361
C          3.03977        2.41512       -3.28684
C          4.49359       -1.71355        2.41541
C          6.40005       -0.54149        1.35887
C          5.18259        0.52937        3.29047
H          2.97010        4.42780       -1.40354
H          4.65107        4.34045       -0.89521
H          4.25975        4.75359       -2.56189
H          6.15755        2.44776       -1.81306
H          5.44782        1.17918       -2.80412
H          5.68890        2.79565       -3.46995
H          2.93202        1.35208       -3.50086
H          2.05042        2.82651       -3.09259
H          3.41677        2.90151       -4.18614
H          4.27614       -2.30529        1.52731
H          5.23069       -2.25677        3.00637
H          3.58814       -1.64681        3.01643
H          7.06461       -1.10268        2.01533
H          6.29218       -1.09835        0.42866
H          6.88761        0.40212        1.12769
H          5.86230        0.05369        3.99699
H          4.22057        0.66285        3.78476
H          5.57507        1.51683        3.05869
H          6.46105        3.71464        0.21107
H          5.11421        3.26745        1.28692
H          6.76991        2.71259        1.63204
