111
-148.55050797
P         -2.80222        1.72572       -0.28998
P          0.13188        0.62888        0.18226
C         -1.92142        2.13817        1.24165
C         -0.61574        1.72730        1.40514
C         -3.94234        3.09440       -0.79599
C         -3.31829        4.03847       -1.80003
C         -2.54134        2.86790        2.23648
H         -3.56881        3.16904        2.11786
C         -1.84692        3.19387        3.38860
H         -2.33122        3.76367        4.16480
C         -0.53553        2.78940        3.54545
H          0.00492        3.04122        4.44307
C          0.07942        2.04862        2.55286
H          1.09559        1.70848        2.67073
Pd        -1.18868        0.88297       -1.72072
Cl        -2.45823        1.47730       -3.46218
Cl         0.48173       -0.12884       -2.83415
C         -5.17419        2.31946       -1.29578
C         -4.01596        0.33118       -0.15139
H         -2.40219        4.48520       -1.40698
H         -3.05822        3.51588       -2.72002
H         -4.00311        4.84674       -2.06639
H         -5.03876        2.09216       -2.36241
H         -6.07513        2.94949       -1.23774
H         -3.73370       -0.39469       -0.92582
C         -5.36393        0.99530       -0.50038
C         -3.96986       -0.30251        1.22195
H         -4.19631        3.63801        0.12250
H         -5.90411        1.20693        0.43248
H         -6.00365        0.29355       -1.05638
H         -2.98375       -0.72017        1.43234
H         -4.18360        0.43651        1.99640
H         -4.70359       -1.10638        1.31662
C         -1.20007       -3.57620        1.32289
C         -0.84063       -3.29333       -0.01932
C         -0.42438       -2.01084       -0.32708
C         -0.30710       -1.04928        0.64055
C         -0.54228       -1.35015        1.95646
C         -0.94763       -2.61802        2.33812
O         -1.85401       -4.79613        1.64065
C         -0.95229       -4.33051       -1.14665
H         -0.19893       -1.73372       -1.34101
H         -0.43068       -0.56794        2.68659
C         -1.14881       -2.91447        3.83184
C          4.66895        0.94222       -0.05264
C          3.87114        1.61899       -1.01040
C          2.49381        1.50393       -0.91787
C          1.91064        0.79754        0.10060
C          2.67406        0.21824        1.08061
C          4.05579        0.31311        1.06103
O          6.07599        0.86214       -0.22942
C          4.47713        2.42227       -2.17170
H          1.85264        1.94228       -1.66279
H          2.17199       -0.32860        1.86030
C          4.85887       -0.28556        2.22680
C         -0.69324       -5.75355       -0.62036
C         -2.35130       -4.24306       -1.77574
C          0.09992       -4.05672       -2.24568
C         -2.57623       -2.51903        4.23978
C         -0.89918       -4.40106        4.14421
C         -0.14655       -2.10251        4.68405
C         -3.27290       -4.72246        1.57501
H         -1.44629       -6.05150        0.10489
H         -0.71131       -6.48078       -1.43171
H          0.28006       -5.81137       -0.13424
H         -2.45803       -4.95728       -2.59171
H         -3.12688       -4.45173       -1.04266
H         -2.53225       -3.24502       -2.17455
H          1.09834       -3.98046       -1.81603
H          0.11157       -4.86221       -2.97949
H         -0.11139       -3.13573       -2.78690
H         -3.31724       -3.07187        3.66697
H         -2.74957       -2.71844        5.29692
H         -2.74703       -1.45701        4.06481
H         -0.97628       -4.59528        5.21370
H         -1.62140       -5.03936        3.64169
H          0.09569       -4.70005        3.81582
H         -0.19813       -2.40109        5.73084
H          0.87445       -2.26494        4.33954
H         -0.35499       -1.03438        4.64614
H         -3.64445       -5.46177        0.86556
H         -3.69777       -4.94528        2.55354
H         -3.58835       -3.72682        1.26060
C          6.50491       -0.28833       -0.94723
C          4.70537        1.48541       -3.36785
C          3.52230        3.55531       -2.61156
C          5.80154        3.08782       -1.75612
C          5.15986       -1.76284        1.93237
C          6.16914        0.48954        2.45615
C          4.05166       -0.19975        3.54281
H          5.39324        0.68255       -3.11429
H          3.76700        1.02973       -3.68333
H          5.11984        2.02870       -4.21660
H          3.23289        4.17109       -1.76044
H          4.00262        4.20261       -3.34496
H          2.61881        3.16321       -3.07617
H          6.19785        3.70748       -2.56014
H          5.65513        3.72003       -0.88102
H          6.55798        2.34708       -1.50938
H          5.74444       -1.87280        1.02216
H          5.71980       -2.21747        2.74921
H          4.23563       -2.32548        1.80227
H          6.83269        0.41152        1.59878
H          5.96489        1.54639        2.62456
H          6.70532        0.10520        3.32350
H          3.18053       -0.85289        3.52630
H          3.71271        0.82002        3.72358
H          4.66287       -0.50447        4.39203
H          5.64711       -0.89377       -1.24279
H          7.05575        0.01995       -1.83571
H          7.17201       -0.88267       -0.32315
