45
-71.81203352
C          1.42365        0.76773        2.61814
P          1.29987        0.68265        0.80145
P         -1.37245        0.24659       -0.92593
C         -1.45346       -0.15824       -2.70108
Cl         1.45628       -2.36799        1.49992
H          1.99746        1.64212        2.91144
H         -1.78997       -1.18287       -2.83116
Cl        -0.99469       -2.91709       -0.78694
C          0.39158        2.09568        0.14141
C         -0.71405        1.90431       -0.65844
C         -1.35678        2.98714       -1.22345
C         -0.89821        4.26847       -0.97298
C          0.19881        4.46150       -0.15659
C          0.84638        3.37283        0.40051
H         -2.21725        2.82435       -1.85293
H         -1.40053        5.11506       -1.41136
H          0.55492        5.45896        0.04209
H          1.71072        3.51061        1.03060
Pd         0.08339       -1.19475        0.16433
H         -0.46979       -0.04964       -3.14906
H          1.91745       -0.12253        2.99698
H         -2.14835        0.50864       -3.20333
C         -5.44384       -0.22924        1.07367
C         -4.87392        1.02411        0.96987
C         -3.63853        1.17206        0.36599
C         -2.97954        0.07023       -0.13246
C         -3.54334       -1.18001       -0.02042
C         -4.77862       -1.33378        0.58054
H         -6.40635       -0.34602        1.54442
H         -5.38986        1.88630        1.35949
H         -3.18274        2.14471        0.28877
H         -2.99754       -2.03531       -0.38167
H         -5.21668       -2.31437        0.66912
C          5.42425        0.38857       -1.12569
C          4.64334        1.50622       -1.34341
C          3.39116        1.59627       -0.76311
C          2.92533        0.57287        0.03231
C          3.70003       -0.54499        0.24108
C          4.95300       -0.63998       -0.33475
H          6.40030        0.31701       -1.57723
H          5.00809        2.30761       -1.96478
H          2.77260        2.46112       -0.93391
H          3.30655       -1.35205        0.83548
H          5.55636       -1.51777       -0.17109
H          0.43002        0.83256        3.05242
