105
-153.06965704
Cl         0.49357        2.06226        3.04368
Pd        -0.30579        1.46258        1.02355
P         -1.21489        0.76443       -0.99581
N         -0.20062       -0.34429       -1.90144
C          0.32312       -1.60818       -1.66764
C          0.24172       -2.29011       -0.42785
C          0.92542       -3.51295       -0.26361
C          0.83766       -4.21836        1.06846
C          1.89759       -5.31214        1.27035
C          2.00354       -6.20497        0.03059
C          2.38323       -5.37854       -1.20789
C          1.63653       -4.07311       -1.32701
C          1.66648       -3.40804       -2.54516
C          1.02927       -2.20624       -2.71138
H          1.09153       -1.69161       -3.65452
H          2.21964       -3.84043       -3.36175
H          3.45826       -5.16350       -1.19265
H          2.72570       -7.01705        0.19605
H          2.87077       -4.84362        1.46360
H          0.91722       -3.47238        1.86863
C         -0.69658       -1.87007        0.64107
C         -0.20947       -1.26410        1.83280
C         -1.09938       -1.08332        2.89662
C         -2.41156       -1.46717        2.79375
C         -2.89780       -2.08479        1.64747
C         -4.33711       -2.54508        1.64665
C         -4.80583       -3.22778        0.34890
C         -3.67630       -4.02417       -0.31061
C         -2.48462       -3.10778       -0.62051
C         -2.03210       -2.30730        0.57521
H         -1.64490       -3.70052       -1.00346
H         -4.03081       -4.52928       -1.22033
H         -5.16185       -2.46828       -0.35612
H         -4.97690       -1.68239        1.87162
H         -3.08318       -1.30345        3.61944
H         -0.74520       -0.60217        3.79125
N          1.11085       -0.81130        1.96118
P          1.73928        0.24276        0.68819
C          2.92193       -0.66042       -0.31290
C          3.27298       -0.22973       -1.56970
C          4.22358       -0.93065       -2.28933
C          4.84091       -2.04982       -1.74538
C          4.48512       -2.45552       -0.46633
C          3.53070       -1.75594        0.24947
H          3.24429       -2.06349        1.24263
H          4.95341       -3.32480       -0.03743
C          5.83002       -2.83031       -2.53850
H          4.48917       -0.61404       -3.28346
H          2.80094        0.64550       -1.98432
C          2.71104        1.59934        1.35326
C          3.52218        1.39573        2.44296
C          4.27693        2.44332        2.93923
C          4.23118        3.69441        2.33831
C          3.40750        3.87662        1.23543
C          2.65425        2.82850        0.73927
H          2.01636        2.96609       -0.11970
H          3.35599        4.84596        0.76977
C          5.01736        4.83096        2.89284
H          4.90446        2.29559        3.80147
H          3.56202        0.42080        2.90164
H          1.32385       -0.33919        2.83077
H         -0.21484       -0.02574       -2.86261
C         -1.03084        2.35921       -1.79942
C         -2.08080        3.24356       -1.86679
C         -1.89297        4.48766       -2.44053
C         -0.65297        4.85296       -2.94827
C          0.39893        3.95126       -2.85596
C          0.20778        2.70664       -2.28394
H          1.02065        2.00335       -2.20606
H          1.36882        4.23103       -3.23043
C         -0.44321        6.20477       -3.53653
H         -2.70926        5.18793       -2.48953
H         -3.03791        2.96313       -1.45781
C         -2.92707        0.28147       -1.23606
C         -3.27568       -0.27668       -2.44343
C         -4.59452       -0.61293       -2.69368
C         -5.57457       -0.38473       -1.73760
C         -5.20764        0.20184       -0.53420
C         -3.88924        0.53246       -0.28766
H         -3.60905        1.01555        0.63206
H         -5.96246        0.40365        0.20650
C         -6.99669       -0.72942       -2.01311
H         -4.87053       -1.05345       -3.63644
H         -2.51334       -0.44936       -3.18618
Cl        -2.25942        2.46875        1.48497
H          2.21628       -5.96517       -2.12038
H          1.67634       -5.91136        2.16487
H          1.03934       -6.69935       -0.14288
H         -0.16501       -4.65037        1.16913
H         -3.35220       -4.82473        0.36613
H         -2.74577       -2.41940       -1.42974
H         -4.47358       -3.23389        2.48908
H         -5.67432       -3.87346        0.54077
H          5.33125       -3.60369       -3.12439
H          6.37837       -2.18657       -3.22764
H          6.55897       -3.31754       -1.88943
H          5.93705        4.48120        3.36389
H          5.29499        5.53739        2.10930
H          4.43877        5.37097        3.64350
H          0.33578        6.18567       -4.30000
H         -1.35583        6.57644       -4.00456
H         -0.14409        6.91883       -2.76804
H         -7.07096       -1.62563       -2.63081
H         -7.54292       -0.91955       -1.08805
H         -7.49774        0.08470       -2.53850
