171
-217.84143156
P         -1.69666        0.64015        0.24281
P          1.49732       -0.20355       -0.30773
C         -0.97564        1.73153       -1.00328
C          0.62309       -0.95095       -1.69269
C         -0.34210        1.28900       -2.15875
C          0.26584        2.23822       -3.00219
C          0.20144        3.58138       -2.67197
C         -0.43058        4.00166       -1.52177
C         -1.01125        3.06880       -0.68463
C          0.81366       -2.27735       -1.99083
C          0.13748       -2.85472       -3.04740
C         -0.73311       -2.09378       -3.79998
C         -0.94227       -0.75381       -3.51530
C         -0.22988       -0.16246       -2.45434
Cl         2.13973        1.16219        2.59092
Cl        -0.89109        0.51700        3.48060
C         -1.89088        0.04348       -4.34044
C          0.99806        1.83320       -4.23368
H         -0.46397        5.04931       -1.27109
H         -1.48927        3.38043        0.23248
H          1.50122       -2.86008       -1.40191
H          0.28731       -3.89628       -3.28039
H          0.66761        4.30088       -3.32394
H         -1.25443       -2.53941       -4.62989
C         -2.87195       -3.60517       -0.82387
C         -1.84047       -3.42074        0.08941
C         -1.46265       -2.11729        0.38533
C         -2.10010       -1.05282       -0.20853
C         -3.13123       -1.25527       -1.09254
C         -3.54135       -2.54258       -1.41714
H         -3.18126       -4.60268       -1.07275
H         -0.67459       -1.93340        1.09374
H         -3.62316       -0.39704       -1.51592
C         -5.56409        2.59861        1.57786
C         -5.24362        2.56874        0.22497
C         -4.04910        1.96517       -0.14675
C         -3.21470        1.42256        0.79916
C         -3.54720        1.46348        2.12797
C         -4.73073        2.05244        2.54762
H         -6.48217        3.06183        1.88379
H         -3.75821        1.92929       -1.18370
H         -2.86299        1.04781        2.84506
C          4.00122       -3.44561        1.68558
C          2.99505       -2.85155        2.43468
C          2.22303       -1.87307        1.82425
C          2.47129       -1.48097        0.52959
C          3.49084       -2.06501       -0.18269
C          4.27034       -3.06949        0.37689
H          4.59443       -4.22047        2.13539
H          1.42819       -1.40602        2.37416
H          3.67115       -1.73689       -1.19030
C          4.29761        2.95578       -1.94769
C          3.53776        3.25705       -0.82468
C          2.70312        2.26815       -0.32229
C          2.61817        1.04582       -0.93901
C          3.35453        0.77495       -2.06663
C          4.22115        1.72693       -2.59131
H          4.97850        3.69708       -2.32297
H          2.11911        2.44106        0.56321
H          3.23034       -0.17866       -2.54920
Pd         0.23926        0.59225        1.53643
C          0.33209       -4.62568        0.47953
C         -1.16786       -4.59544        0.81704
C         -1.78159       -5.94882        0.40924
C         -1.35657       -4.41531        2.33466
H          0.81725       -3.69567        0.76769
H          0.83535       -5.44002        1.00009
H          0.48217       -4.77010       -0.58966
H         -2.84539       -5.98402        0.64351
H         -1.65430       -6.13194       -0.65758
H         -1.29928       -6.76762        0.94310
H         -2.41564       -4.36635        2.58686
H         -0.91733       -5.24643        2.88567
H         -0.88908       -3.49620        2.68372
C         -5.78033       -3.65582       -1.62471
C         -4.72171       -2.81319       -2.36161
C         -4.22203       -3.57784       -3.59948
C         -5.38904       -1.50384       -2.82555
H         -6.12046       -3.14376       -0.72474
H         -6.64795       -3.83380       -2.25985
H         -5.38216       -4.62536       -1.32833
H         -3.75623       -4.52214       -3.31985
H         -5.04417       -3.79815       -4.28019
H         -3.48518       -2.98891       -4.14312
H         -4.68806       -0.87562       -3.37350
H         -6.23091       -1.71068       -3.48613
H         -5.76773       -0.93833       -1.97455
C         -5.36301        4.30159       -1.58026
C         -6.14024        3.18479       -0.85852
C         -7.42579        3.78904       -0.26181
C         -6.53810        2.09441       -1.87078
H         -5.97753        4.77186       -2.34769
H         -5.05380        5.07276       -0.87499
H         -4.46705        3.91228       -2.06270
H         -8.01401        3.02936        0.25267
H         -7.19403        4.58582        0.44472
H         -8.05179        4.21611       -1.04525
H         -7.06247        1.27959       -1.37199
H         -7.19562        2.49774       -2.64069
H         -5.66302        1.67693       -2.36738
C         -6.41234        2.76983        4.32130
C         -5.05906        2.08639        4.04717
C         -3.95708        2.86662        4.78835
C         -5.12143        0.64446        4.58481
H         -7.22617        2.24195        3.82447
H         -6.63022        2.78103        5.38920
H         -6.40727        3.80340        3.97567
H         -3.87949        3.88300        4.40294
H         -4.17034        2.92480        5.85547
H         -2.98526        2.38907        4.66887
H         -4.16622        0.13506        4.46299
H         -5.37115        0.63396        5.64556
H         -5.87825        0.06789        4.05335
C          2.37325       -4.74877        3.95284
C          2.77919       -3.26576        3.89752
C          1.67585       -2.42485        4.57124
C          4.08800       -3.05562        4.68196
H          1.45311       -4.91666        3.39521
H          3.14526       -5.38621        3.52324
H          2.20752       -5.07011        4.98095
H          1.92461       -1.36389        4.55139
H          0.71586       -2.56136        4.07578
H          1.55029       -2.71512        5.61408
H          4.89319       -3.67254        4.28507
H          4.40498       -2.01438        4.62637
H          3.95862       -3.31364        5.73288
C          6.72224       -3.60326        0.34608
C          5.38983       -3.76670       -0.40836
C          5.55412       -3.16605       -1.81876
C          5.04938       -5.26136       -0.54940
H          6.67992       -4.06409        1.33215
H          7.54087       -4.06803       -0.20317
H          6.96112       -2.54829        0.47941
H          4.64228       -3.28210       -2.40443
H          5.79976       -2.10557       -1.76570
H          6.35819       -3.66405       -2.36038
H          4.09863       -5.39183       -1.06624
H          5.81795       -5.78512       -1.11754
H          4.96837       -5.74171        0.42508
C          2.66985        4.78188        1.01732
C          3.64414        4.64061       -0.16943
C          3.30160        5.72406       -1.20872
C          5.07913        4.84726        0.34681
H          2.73990        5.77542        1.45961
H          1.63856        4.63448        0.69720
H          2.89531        4.05729        1.79945
H          3.34819        6.71853       -0.76532
H          3.99408        5.70166       -2.04924
H          2.29553        5.57627       -1.60013
H          5.18307        5.81671        0.83376
H          5.34144        4.07557        1.07032
H          5.80214        4.80255       -0.46686
C          4.70765        0.12556       -4.50817
C          5.13081        1.42336       -3.79120
C          6.57425        1.25995       -3.28379
C          5.07163        2.57644       -4.81235
H          3.67146        0.18201       -4.84065
H          5.32890       -0.05139       -5.38604
H          4.81378       -0.74004       -3.85516
H          7.25487        1.03478       -4.10467
H          6.92262        2.17056       -2.79713
H          6.63805        0.44879       -2.55864
H          5.43644        3.50967       -4.38598
H          5.68630        2.35313       -5.68427
H          4.05135        2.73990       -5.15663
H         -1.38713        0.47589       -5.20572
H          0.43927        2.10924       -5.12901
H         -2.32801        0.85824       -3.76092
H         -2.70941       -0.57639       -4.70857
H          1.17433        0.75740       -4.26192
H          1.96936        2.32613       -4.28031
