111
-148.55993071
P         -2.56946        1.94717        1.06288
P          0.15510        0.45664        0.47562
C         -1.44110        1.57304        2.43014
C         -0.23522        0.96219        2.16232
C         -3.43725        3.56481        1.29235
C         -2.88382        4.61860        0.35806
C         -1.78473        1.87859        3.73143
H         -2.73781        2.33761        3.93724
C         -0.91115        1.57799        4.76239
H         -1.17832        1.81570        5.77913
C          0.30030        0.97129        4.49068
H          0.97904        0.73522        5.29366
C          0.63764        0.65842        3.18615
H          1.57228        0.17069        2.95797
Pd        -1.36031        1.59108       -0.86225
Cl        -3.08270        2.33008       -2.09377
Cl        -0.00897        1.31165       -2.63350
C         -4.91346        3.19983        1.04595
C         -4.01995        0.80193        0.97076
H         -3.00363        4.31440       -0.68293
H         -3.39863        5.57402        0.48369
H         -1.81725        4.78165        0.53072
H         -5.15142        3.39072       -0.00962
H         -5.57489        3.86414        1.62268
H         -4.10929        0.50919       -0.08411
C         -5.19841        1.70658        1.37629
C         -3.82304       -0.41360        1.85028
H         -3.28457        3.85717        2.33898
H         -5.37337        1.59693        2.45543
H         -6.12611        1.36694        0.89100
H         -3.66994       -0.11920        2.89017
H         -4.69054       -1.07670        1.81616
H         -2.94722       -0.98699        1.53986
C         -1.21015       -3.83528       -0.21141
C         -0.96250       -3.38081        1.11134
C         -0.53043       -2.07689        1.28589
C         -0.40758       -1.22404        0.22101
C         -0.74763       -1.62600       -1.04293
C         -1.20562       -2.90846       -1.28796
O         -1.37853       -5.22005       -0.46887
C         -1.14537       -4.24980        2.36683
H         -0.27410       -1.71378        2.26610
H         -0.64298       -0.91716       -1.84695
C         -1.71175       -3.22770       -2.70444
C          4.58782        0.66093       -0.53290
C          4.04562       -0.50413        0.06742
C          2.68901       -0.52630        0.34395
C          1.90154        0.57177        0.11544
C          2.43975        1.73658       -0.36338
C          3.78846        1.82537       -0.66789
O          5.91834        0.64953       -1.02996
C          4.89024       -1.74760        0.38722
H          2.22045       -1.41532        0.73010
H          1.78178        2.57432       -0.51756
C          4.35100        3.15997       -1.18155
C         -1.91583       -3.45046        3.44133
C         -1.96184       -5.52293        2.08509
C          0.23611       -4.63657        2.92068
C         -2.64886       -2.09296       -3.17716
C         -0.51631       -3.32635       -3.66613
C         -2.52368       -4.53331       -2.75454
C         -0.15467       -5.87650       -0.75479
H         -2.87565       -3.11127        3.05327
H         -2.10900       -4.06708        4.31877
H         -1.35925       -2.57683        3.77630
H         -2.16101       -6.07347        3.00423
H         -2.91682       -5.27268        1.62434
H         -1.43103       -6.19056        1.41061
H          0.80364       -5.21354        2.19287
H          0.81876       -3.74964        3.16821
H          0.13933       -5.23772        3.82437
H         -2.11986       -1.14733       -3.28309
H         -3.08721       -2.32898       -4.14632
H         -3.46207       -1.94483       -2.46717
H          0.05210       -2.39686       -3.67706
H          0.16054       -4.12624       -3.37201
H         -0.85099       -3.52664       -4.68358
H         -3.33753       -4.50742       -2.03073
H         -2.95269       -4.69157       -3.74370
H         -1.90046       -5.39422       -2.52445
H         -0.35010       -6.92996       -0.95616
H          0.31758       -5.42480       -1.62564
H          0.52202       -5.79171        0.09409
C          6.02874        0.22098       -2.38158
C          4.88509       -2.69124       -0.82513
C          6.33385       -1.35865        0.75367
C          4.30631       -2.50612        1.60169
C          5.81877        3.34597       -0.75603
C          4.23143        3.20285       -2.71265
C          3.55890        4.34995       -0.59360
H          3.86774       -2.99315       -1.07348
H          5.31012       -2.20957       -1.70229
H          5.46440       -3.59150       -0.62170
H          6.91524       -2.23479        1.03975
H          6.84232       -0.88558       -0.08260
H          6.34218       -0.65855        1.58840
H          3.34442       -2.96116        1.36959
H          4.97277       -3.31058        1.91200
H          4.17353       -1.83564        2.45040
H          6.46028        2.58889       -1.19979
H          6.19626        4.32002       -1.06618
H          5.91631        3.27335        0.32665
H          3.19097        3.09953       -3.01993
H          4.60908        4.14538       -3.10806
H          4.79331        2.39510       -3.17503
H          3.51228        4.28563        0.49320
H          2.54155        4.38749       -0.98016
H          4.03355        5.29608       -0.85274
H          5.04505       -0.02352       -2.78448
H          6.48080        1.01150       -2.98033
H          6.67292       -0.65643       -2.43593
