45
-71.81341184
C          2.41094        0.96935        2.49717
P          1.54146        0.76044        0.90700
P         -1.02026        0.28891       -0.84238
C         -0.40838       -0.06277       -2.52515
Cl         1.53782       -2.12342        2.03109
H          3.12761        1.78259        2.42728
H         -0.92584        0.56298       -3.24667
Cl        -1.13955       -2.75645       -0.07174
C          0.50698        2.17506        0.47111
C         -0.60010        1.96417       -0.32126
C         -1.38759        3.02634       -0.71481
C         -1.05914        4.30901       -0.31268
C          0.05502        4.52201        0.47621
C          0.84304        3.45356        0.86671
H         -2.25331        2.84387       -1.33109
H         -1.67212        5.14142       -0.61684
H          0.31325        5.52146        0.78545
H          1.72150        3.60999        1.47116
Pd         0.08657       -1.04625        0.69774
H         -0.57728       -1.10727       -2.77100
H          2.94007        0.05483        2.74931
H          0.65674        0.14125       -2.58158
C         -5.46552       -0.48401       -0.25221
C         -4.85686       -0.88993       -1.42342
C         -3.50773       -0.65439       -1.61803
C         -2.77889       -0.01285       -0.64264
C         -3.37985        0.38911        0.52879
C         -4.72928        0.15502        0.72562
H         -6.51621       -0.66951       -0.09959
H         -5.43057       -1.39377       -2.18391
H         -3.02067       -0.97589       -2.52413
H         -2.78932        0.88338        1.28447
H         -5.20266        0.46837        1.64157
C          4.33595       -0.19987       -2.54661
C          3.68906        1.02002       -2.50504
C          2.84931        1.31907       -1.44741
C          2.66805        0.39905       -0.44070
C          3.30297       -0.82026       -0.48203
C          4.14359       -1.12257       -1.53700
H          4.98965       -0.43380       -3.37097
H          3.83595        1.73734       -3.29570
H          2.33024        2.26297       -1.40456
H          3.11322       -1.53569        0.30188
H          4.64094       -2.07783       -1.57338
H          1.69498        1.19073        3.28349
