111
-148.55685991
P         -2.55063        2.03360        1.12170
P          0.11300        0.43726        0.51512
C         -1.43783        1.59330        2.48291
C         -0.25838        0.93574        2.20758
C         -3.32227        3.69757        1.36650
C         -2.73275        4.71844        0.41779
C         -1.76841        1.89670        3.78809
H         -2.70070        2.39423        3.99971
C         -0.90890        1.54564        4.81499
H         -1.16607        1.78147        5.83474
C          0.27560        0.89105        4.53548
H          0.94292        0.61530        5.33538
C          0.60025        0.58136        3.22693
H          1.51281        0.05625        2.99184
Pd        -1.35503        1.64615       -0.80727
Cl        -3.05257        2.44163       -2.03574
Cl        -0.02217        1.20715       -2.56591
C         -4.82225        3.41712        1.15556
C         -4.06540        0.97531        1.03882
H         -2.89444        4.42133       -0.61957
H         -3.18988        5.70131        0.55420
H         -1.65489        4.82136        0.56479
H         -5.07625        3.63096        0.10820
H         -5.43072        4.11159        1.75459
H         -4.19080        0.70705       -0.01886
C         -5.18180        1.93916        1.48132
C         -3.92225       -0.26468        1.89406
H         -3.12823        3.98115        2.40877
H         -5.33587        1.82906        2.56363
H         -6.13852        1.65579        1.01668
H         -3.08802       -0.88227        1.55495
H         -3.73108        0.00201        2.93514
H         -4.82764       -0.87545        1.86781
C         -1.14470       -3.87494       -0.22278
C         -1.09234       -3.38429        1.10759
C         -0.70190       -2.07090        1.30774
C         -0.44414       -1.24300        0.24725
C         -0.59486       -1.68295       -1.04021
C         -0.98419       -2.98203       -1.31301
O         -1.31521       -5.26453       -0.46162
C         -1.40726       -4.26459        2.32703
H         -0.57815       -1.67890        2.30162
H         -0.39066       -0.98646       -1.83472
C         -1.18807       -3.40296       -2.77617
C          4.50103        0.64160       -0.67094
C          3.97511       -0.53850       -0.08106
C          2.63365       -0.55463        0.26216
C          1.85031        0.56033        0.11507
C          2.38409        1.74043       -0.33051
C          3.71737        1.82644       -0.69785
O          5.77002        0.61278       -1.30427
C          4.79948       -1.80590        0.20073
H          2.17617       -1.45717        0.63194
H          1.73602        2.59629       -0.41596
C          4.25655        3.20225       -1.12419
C         -1.96827       -3.41270        3.48856
C         -2.47720       -5.31856        1.98884
C         -0.11763       -4.95109        2.80201
C         -1.68627       -2.20656       -3.62001
C          0.15005       -3.88846       -3.35411
C         -2.25241       -4.50855       -2.89473
C         -0.09469       -5.98982       -0.54634
H         -2.29600       -4.04886        4.31044
H         -1.21911       -2.73259        3.89100
H         -2.82513       -2.82551        3.16038
H         -2.74741       -5.89960        2.87023
H         -3.37915       -4.84075        1.60772
H         -2.12362       -6.01460        1.23230
H         -0.30607       -5.57474        3.67551
H          0.30274       -5.58247        2.02290
H          0.63588       -4.21114        3.07125
H         -0.92060       -1.43978       -3.72682
H         -1.95802       -2.52809       -4.62504
H         -2.56518       -1.75048       -3.16516
H          0.90068       -3.10008       -3.30114
H          0.53079       -4.74447       -2.80196
H          0.04131       -4.18177       -4.39790
H         -3.19253       -4.18485       -2.44935
H         -2.44028       -4.76137       -3.93792
H         -1.93933       -5.41757       -2.38752
H          0.75551       -5.32426       -0.39120
H         -0.08365       -6.77557        0.20888
H         -0.01428       -6.45908       -1.52669
C          5.69343        0.23730       -2.66966
C          6.31433       -1.55152        0.11485
C          4.50581       -2.29952        1.63509
C          4.40253       -2.90553       -0.79892
C          5.79424        3.24809       -1.15034
C          3.70680        3.55429       -2.51674
C          3.79190        4.27318       -0.11257
H          6.87853       -2.43560        0.41091
H          6.61497       -1.29407       -0.89782
H          6.60327       -0.72889        0.76804
H          5.13346       -3.15371        1.88789
H          4.70322       -1.51094        2.36072
H          3.46981       -2.61338        1.75201
H          3.33922       -3.13293       -0.72664
H          4.60646       -2.59911       -1.82302
H          4.95574       -3.82450       -0.60690
H          6.19574        2.58949       -1.91671
H          6.15370        4.25506       -1.36096
H          6.20447        2.93373       -0.19132
H          4.04811        4.53956       -2.83307
H          4.03156        2.83156       -3.26254
H          2.61725        3.56035       -2.51510
H          4.10015        4.00663        0.89799
H          2.70965        4.39098       -0.11526
H          4.22380        5.24500       -0.35035
H          5.27509       -0.76369       -2.75982
H          5.05601        0.93242       -3.21339
H          6.69371        0.25037       -3.10302
