72
-98.09412561
Fe         0.00981        2.78897        0.00985
P          1.90444       -0.09869       -0.12477
P         -1.86005       -0.04622       -0.11983
C          1.43650        1.50251        0.64137
C          0.44774        1.69450        1.68802
C          0.39039        3.11179        1.99875
C          1.36597        3.79463        1.16812
C          2.02314        2.79854        0.33874
C         -1.43796        1.63078       -0.73106
C         -1.99782        2.88831       -0.25998
C         -1.35286        3.97060       -0.98422
C         -0.40310        3.38332       -1.91149
C         -0.46664        1.93937       -1.76577
C          3.38455       -0.73440        0.78527
C          4.53785       -0.03292        0.04756
C          2.72165        0.24283       -1.76027
C          4.23460        0.13452       -1.46635
C         -3.23531       -0.71813       -1.15877
C         -4.46993       -0.13086       -0.45520
C         -2.78663        0.10254        1.48353
C         -4.26845       -0.08390        1.08495
H         -0.14061        0.91043        2.16345
H         -0.25322        3.57745        2.74878
H          1.58539        4.86480        1.18208
H          2.82495        2.98495       -0.37885
H         -2.77687        2.99664        0.49767
H          0.10450        1.21065       -2.34035
Cl         1.53311       -3.06881        0.42568
Cl        -1.63840       -3.02243        0.06609
Pd        -0.00268       -1.46312        0.02495
H          3.43319       -1.81629        0.61922
C          3.32938       -0.42954        2.27832
H          2.45981        1.28476       -1.98589
C          2.24060       -0.67090       -2.88851
H          5.48098       -0.57930        0.20368
H          4.69261        0.95513        0.50410
H          4.76417        1.01049       -1.86984
H          4.64941       -0.71902       -2.01635
H         -1.55886        5.03661       -0.86389
H          0.23020        3.92927       -2.61461
H          4.30795       -0.65326        2.72562
H          1.17255       -0.49492       -3.06365
H         -3.22525       -1.80874       -1.05291
C         -3.09224       -0.33643       -2.62616
H         -2.60254        1.11887        1.85085
C         -2.30414       -0.92019        2.50740
H         -5.37241       -0.70325       -0.72068
H         -4.64076        0.88551       -0.83800
H         -4.89038        0.70367        1.53546
H         -4.63270       -1.02444        1.51968
H         -4.02957       -0.56254       -3.15336
H         -1.20938       -0.88904        2.57389
C          2.23726       -1.19414        3.00897
H          2.21446       -0.96168        4.07598
H          1.25294       -0.96187        2.60230
H          2.37613       -2.27204        2.90807
C          2.46943       -2.15558       -2.64932
H          1.97308       -2.49086       -1.74017
H          2.08301       -2.76458       -3.46992
H          3.52748       -2.39650       -2.54163
C         -1.92837       -1.04566       -3.29950
H         -0.99467       -0.84791       -2.77331
H         -2.06976       -2.12812       -3.29528
H         -1.79778       -0.73245       -4.33772
C         -2.91256       -0.71419        3.88632
H         -2.66419        0.27258        4.28183
H         -4.00130       -0.78304        3.85588
H         -2.55714       -1.45564        4.60549
H          3.19156        0.65130        2.41325
H          2.73584       -0.36906       -3.82189
H         -2.97355        0.75257       -2.69938
H         -2.53381       -1.92681        2.13401
