111
-148.55695567
P         -2.56733        1.98311        1.04628
P          0.17517        0.47419        0.45507
C         -1.42979        1.59995        2.40593
C         -0.21848        0.99877        2.13679
C         -3.43596        3.59646        1.30432
C         -2.85132        4.68918        0.43630
C         -1.77349        1.90195        3.70815
H         -2.72987        2.35286        3.91636
C         -0.89665        1.60881        4.73842
H         -1.16474        1.84447        5.75540
C          0.31956        1.01296        4.46544
H          1.00117        0.78231        5.26757
C          0.65726        0.70265        3.16054
H          1.59491        0.22079        2.93273
Pd        -1.33730        1.62561       -0.86811
Cl        -3.01850        2.53850       -2.03877
Cl        -0.03845        1.19593       -2.65027
C         -4.90317        3.24277        0.99837
C         -4.01773        0.83946        0.93051
H         -1.79039        4.84018        0.64945
H         -2.93929        4.43451       -0.62058
H         -3.36743        5.63980        0.58953
H         -5.09990        3.44550       -0.06351
H         -5.58265        3.90444        1.55699
H         -4.08343        0.53903       -0.12391
C         -5.20515        1.74726        1.30340
C         -3.84195       -0.36952        1.82353
H         -3.31959        3.84715        2.36625
H         -5.41816        1.62829        2.37466
H         -6.11715        1.41713        0.78319
H         -4.71105       -1.02987        1.77861
H         -2.96310       -0.94916        1.53442
H         -3.70730       -0.06672        2.86358
C         -1.28392       -3.80060       -0.14296
C         -1.03677       -3.31953        1.16837
C         -0.57144       -2.02386        1.31547
C         -0.41272       -1.20304        0.23032
C         -0.73667       -1.63377       -1.02807
C         -1.22073       -2.91126       -1.24603
O         -1.55928       -5.17789       -0.35377
C         -1.23760       -4.18893        2.41926
H         -0.32255       -1.63597        2.28731
H         -0.59949       -0.94704       -1.84488
C         -1.65453       -3.30836       -2.66549
C          4.60682        0.60051       -0.57066
C          4.07605       -0.49263        0.16104
C          2.71939       -0.49669        0.43954
C          1.92237        0.56246        0.09131
C          2.45029        1.66997       -0.51751
C          3.79710        1.73489       -0.83545
O          5.93528        0.54312       -1.07003
C          4.93369       -1.68139        0.62276
H          2.25856       -1.34272        0.92022
H          1.78457        2.47812       -0.76680
C          4.34455        3.00446       -1.50609
C         -2.40636       -5.17216        2.22690
C          0.05931       -4.95717        2.71555
C         -1.58261       -3.31458        3.64672
C         -2.78683       -4.35057       -2.62958
C         -2.19997       -2.07879       -3.42893
C         -0.44411       -3.86456       -3.43013
C         -0.40350       -5.96631       -0.60855
H         -2.20137       -5.88042        1.42791
H         -2.59046       -5.74487        3.13551
H         -3.32026       -4.63635        1.97235
H          0.33060       -5.60677        1.88691
H          0.88664       -4.26708        2.88024
H         -0.04771       -5.57524        3.60661
H         -1.84306       -3.93653        4.50284
H         -0.74159       -2.69230        3.94902
H         -2.43206       -2.66586        3.43556
H         -3.13763       -4.58305       -3.63474
H         -2.45664       -5.28037       -2.17340
H         -3.63260       -3.97781       -2.05274
H         -1.41534       -1.35523       -3.64438
H         -2.63074       -2.37617       -4.38460
H         -2.97753       -1.57801       -2.85262
H         -0.71935       -4.14441       -4.44665
H          0.34953       -3.11995       -3.48795
H         -0.03675       -4.74431       -2.93753
H          0.49498       -5.34914       -0.56796
H         -0.33293       -6.76065        0.13439
H         -0.48358       -6.42724       -1.59283
C          6.04376       -0.04214       -2.36174
C          4.36387       -2.29075        1.92460
C          4.92946       -2.76485       -0.46639
C          6.37623       -1.24001        0.92956
C          4.21655        2.86521       -3.03081
C          3.54417        4.24849       -1.05781
C          5.81272        3.25204       -1.11491
H          5.03825       -3.04750        2.32481
H          4.23254       -1.52304        2.68676
H          3.40348       -2.77621        1.75721
H          3.91369       -3.10513       -0.66692
H          5.34184       -2.38836       -1.39934
H          5.52063       -3.62782       -0.16099
H          6.87649       -0.86941        0.03849
H          6.38353       -0.44281        1.67212
H          6.96614       -2.07023        1.31714
H          3.17571        2.71516       -3.31688
H          4.58116        3.75860       -3.53702
H          4.78542        2.01473       -3.39840
H          2.52471        4.23136       -1.44023
H          3.50331        4.31231        0.02924
H          4.00871        5.16158       -1.42940
H          6.45882        2.45336       -1.47033
H          5.91676        3.30868       -0.03190
H          6.17947        4.18579       -1.54045
H          5.05990       -0.33566       -2.73001
H          6.49138        0.67357       -3.05110
H          6.69069       -0.91791       -2.31409
