115
-277.93750680
P         -1.86656       -0.11884       -0.17882
P          1.71282       -0.64384        0.56072
C         -1.69383        1.66084       -0.47027
C         -2.81840        2.45069       -0.36820
H         -3.79145        1.99286       -0.27992
C         -2.68541        3.82177       -0.27944
H         -3.53684        4.44816       -0.06208
C         -1.43019        4.40581       -0.32169
C         -0.32512        3.61404       -0.59740
H          0.64396        4.08044       -0.69415
C         -0.45842        2.24291       -0.66630
H          0.41754        1.63110       -0.79678
C         -3.29871       -0.75653       -1.06083
C         -3.81301       -0.10667       -2.15890
H         -3.33863        0.79126       -2.52091
C         -4.92519       -0.61525       -2.79920
H         -5.35432       -0.11547       -3.65338
C         -5.52101       -1.77572       -2.34510
C         -4.99252       -2.42297       -1.24427
H         -5.47362       -3.31967       -0.88821
C         -3.88084       -1.91599       -0.60478
H         -3.47217       -2.41617        0.25846
C         -1.90316       -0.69726        1.55810
C         -1.21051       -1.88171        1.74180
H         -0.70072       -2.33026        0.90629
C         -1.01695       -2.42564        3.01220
C         -1.74857       -1.88334        4.06145
H         -1.64904       -2.30586        5.04733
C         -2.46384       -0.71628        3.88427
H         -2.92237       -0.24441        4.73661
C         -2.45709       -0.04176        2.66362
C          1.13651       -0.18176        2.23725
C          0.39062        0.97890        2.20773
H          0.18481        1.44201        1.26155
C         -0.25765        1.46844        3.33889
C          0.04699        0.88113        4.55986
H         -0.40759        1.26284        5.45872
C          0.79193       -0.27985        4.60506
H          0.91151       -0.79108        5.54534
C          1.24590       -0.89770        3.43875
C         -2.73304        1.44269        2.68978
H         -3.60312        1.63204        3.32810
H         -3.05068        1.75440        1.69715
C         -1.50330        2.29846        3.17512
H         -1.29480        3.11789        2.47992
H         -1.72759        2.79520        4.12545
C          0.20377       -3.26179        3.29974
H          0.35395       -3.97853        2.48606
H          0.01483       -3.88646        4.18005
C          1.49482       -2.38793        3.51478
H          1.95239       -2.62332        4.48325
H          2.26785       -2.66896        2.80367
C          2.71798       -2.12430        0.70728
C          2.15913       -3.35434        0.43567
C          3.94338       -2.03035        1.33362
C          2.77567       -4.49782        0.89699
C          4.55318       -3.17750        1.80739
C          3.93645       -4.40935        1.65009
C          2.73575        0.65484       -0.15699
C          2.94181        1.83526        0.52035
C          3.21904        0.49797       -1.43455
C          3.59902        2.87612       -0.10044
H          2.55978        1.95880        1.51992
C          3.88771        1.53264       -2.05246
H          3.02965       -0.41897       -1.96746
C          4.06934        2.73238       -1.39343
H          3.70599        3.82993        0.39166
H          4.22816        1.44687       -3.07275
Pd         0.10822       -0.96527       -1.13255
Cl        -1.20631       -1.15378       -2.94729
Cl         1.76759       -2.10174       -2.14721
H          5.44568       -3.12126        2.41086
H          4.36318       -1.05936        1.54590
H          2.29704       -5.45786        0.79032
H          1.20688       -3.41844       -0.06563
C         -1.10953        5.53973        1.82419
C         -1.27026        5.77668        0.28986
C         -0.06511        6.54988       -0.31503
F         -2.22845        4.94345        2.25713
F         -0.07340        4.71549        2.03207
F         -0.92646        6.71018        2.44977
F         -2.37296        6.50326        0.09286
F         -0.09512        7.81816        0.12447
F          1.07853        5.95457        0.05435
F         -0.18990        6.52128       -1.65084
C         -6.74840       -3.81230       -3.17868
C         -6.79021       -2.26613       -2.99451
C         -7.99473       -1.80561       -2.12407
F         -5.60351       -4.11472       -3.80890
F         -6.77675       -4.40953       -1.97918
F         -7.79911       -4.19641       -3.91979
F         -6.92765       -1.71745       -4.20470
F         -7.84212       -2.27430       -0.87679
F         -7.98630       -0.46424       -2.10646
F         -9.13674       -2.25627       -2.66421
C          3.35812        4.56984       -2.86788
C          4.58718        3.91348       -2.17158
C          5.35580        4.90264       -1.24730
F          3.70302        5.76140       -3.37821
F          2.96219        3.73954       -3.84400
F          2.37171        4.69744       -1.96782
F          5.43203        3.50310       -3.12133
F          6.24686        4.19042       -0.54162
F          5.98780        5.81278       -2.00489
F          4.49330        5.50146       -0.41392
C          3.30505       -5.40682        3.79836
C          4.29542       -5.52846        2.59542
C          4.22169       -6.91380        1.89070
F          3.49176       -4.20091        4.35213
F          2.04678       -5.48259        3.34386
F          3.55224       -6.37657        4.68891
F          5.53620       -5.36483        3.06038
F          4.99776       -6.85551        0.79811
F          4.67597       -7.85715        2.73014
F          2.95611       -7.17410        1.53485
