111
-148.55133293
P         -1.67365        2.77292        0.19418
P         -0.51137       -0.16519        0.43976
C         -1.44419        2.02249        1.83113
C         -1.01357        0.71642        1.93416
C         -0.46225        4.15038       -0.04366
C          0.48098        3.83794       -1.18549
C         -1.67041        2.76333        2.97376
H         -1.96417        3.79655        2.88846
C         -1.49421        2.18434        4.21850
H         -1.67524        2.76194        5.11027
C         -1.08155        0.86985        4.31891
H         -0.93997        0.41981        5.28775
C         -0.83049        0.13747        3.17297
H         -0.47643       -0.87870        3.23670
Pd        -1.61907        0.96971       -1.25533
Cl        -3.02422        2.04232       -2.62750
Cl        -1.24020       -0.83162       -2.54722
C         -1.35665        5.38390       -0.28422
C         -3.26109        3.71704        0.05035
H          1.18064        4.65851       -1.36079
H          1.06178        2.93499       -0.98731
H         -0.07524        3.67095       -2.11025
H         -1.39428        5.58432       -1.36370
H         -0.90150        6.27994        0.16386
H         -3.59976        3.57620       -0.98407
C         -2.80290        5.17288        0.24780
C         -4.32335        3.23613        1.01572
H          0.08210        4.24346        0.90524
H         -2.84483        5.41886        1.31757
H         -3.50658        5.86456       -0.24033
H         -5.25682        3.78870        0.88735
H         -4.53598        2.17443        0.87148
H         -4.00677        3.36803        2.05048
C         -0.48464       -4.68270        1.02046
C         -1.45583       -4.09486        0.16974
C         -1.46573       -2.71592        0.03893
C         -0.50990       -1.94268        0.64313
C          0.50135       -2.51613        1.36971
C          0.56085       -3.88752        1.55472
O         -0.57424       -6.05900        1.36008
C         -2.48761       -4.92718       -0.60839
H         -2.21465       -2.22390       -0.55664
H          1.25198       -1.86989        1.79200
C          1.73351       -4.48653        2.34685
C          3.60401        1.39397       -0.73968
C          2.87510        0.57299       -1.63734
C          1.62965        0.11723       -1.24281
C          1.13594        0.39148        0.00404
C          1.87409        1.10669        0.90904
C          3.12992        1.58985        0.58291
O          4.78790        2.04688       -1.17562
C          3.38306        0.21896       -3.04301
H          0.99880       -0.42756       -1.92278
H          1.44591        1.29948        1.87675
C          3.93330        2.34946        1.64951
C         -2.86599       -4.22329       -1.93210
C         -1.91697       -6.30702       -0.98386
C         -3.75660       -5.09208        0.24092
C          2.09546       -5.88862        1.82430
C          2.99834       -3.60985        2.19909
C          1.35759       -4.55670        3.83468
C         -1.37288       -6.32282        2.50661
H         -3.42968       -3.30844       -1.75656
H         -1.97429       -3.97021       -2.50502
H         -3.48932       -4.86900       -2.55010
H         -0.99186       -6.19823       -1.54897
H         -1.69929       -6.90068       -0.09955
H         -2.62279       -6.87069       -1.59340
H         -4.51082       -5.67000       -0.29257
H         -3.54144       -5.60298        1.17636
H         -4.18575       -4.12059        0.48493
H          1.27746       -6.58968        1.97073
H          2.31985       -5.85468        0.75872
H          2.96737       -6.28708        2.34247
H          3.22547       -3.43042        1.14848
H          2.88217       -2.64706        2.69471
H          3.86218       -4.09825        2.64948
H          0.48244       -5.18284        3.99073
H          2.17564       -4.96827        4.42533
H          1.12783       -3.56398        4.22123
H         -0.77165       -6.82929        3.26148
H         -1.76658       -5.39283        2.91870
H         -2.19934       -6.97881        2.23387
C          4.57116        3.33602       -1.73655
C          4.91738        0.09932       -3.06623
C          2.81800       -1.14609       -3.49900
C          2.91658        1.29594       -4.03463
C          3.58797        1.83033        3.06434
C          5.44663        2.14525        1.45520
C          3.58389        3.84386        1.57854
H          5.25558       -0.63538       -2.33629
H          5.27132       -0.21084       -4.04908
H          5.39374        1.04725       -2.82959
H          3.27703       -1.46136       -4.43567
H          3.01522       -1.91592       -2.75345
H          1.74348       -1.10144       -3.67001
H          3.24817        1.06510       -5.04658
H          1.82895        1.36545       -4.04322
H          3.30773        2.27471       -3.76789
H          2.56856        2.08522        3.35054
H          3.69948        0.74759        3.11781
H          4.24846        2.27204        3.81016
H          5.69429        1.08429        1.46257
H          5.78547        2.55954        0.50912
H          6.01293        2.63149        2.24914
H          2.52009        3.99904        1.75644
H          3.81905        4.25873        0.60142
H          4.13709        4.41023        2.32726
H          4.94504        3.35738       -2.76007
H          3.50861        3.57974       -1.73330
H          5.11678        4.08291       -1.16021
