111
-148.55542547
P         -2.40984        2.36187       -0.08669
P         -0.00360        0.36904        0.46529
C         -1.73747        2.20591        1.58666
C         -0.72633        1.30264        1.82910
C         -2.58898        4.13244       -0.58559
C         -1.87768        4.37739       -1.89857
C         -2.25217        2.95926        2.62227
H         -3.02968        3.67825        2.42179
C         -1.76570        2.78793        3.90680
H         -2.16840        3.37415        4.71662
C         -0.77162        1.86049        4.15289
H         -0.39859        1.72020        5.15408
C         -0.25143        1.11434        3.11059
H          0.52267        0.38360        3.28678
Pd        -1.20411        0.93727       -1.44657
Cl        -2.75724        1.23471       -3.03868
Cl        -0.00062       -0.58085       -2.58462
C         -4.11804        4.32658       -0.65682
C         -4.17334        1.80340       -0.21583
H         -2.29744        3.74672       -2.68479
H         -1.97533        5.41707       -2.22046
H         -0.81256        4.14423       -1.82382
H         -4.35800        5.06600       -1.43474
H         -4.48517        4.75901        0.28551
H         -4.17036        0.90679       -0.85058
C         -4.85729        2.98657       -0.92997
C         -4.76406        1.48610        1.14196
H         -2.14504        4.73931        0.21524
H         -5.90846        3.05058       -0.61298
H         -4.88435        2.80155       -2.01393
H         -4.15948        0.75121        1.67809
H         -4.81373        2.38351        1.76024
H         -5.77970        1.09276        1.05555
C         -1.11823       -4.03628        0.69236
C          0.22835       -3.65192        0.91988
C          0.54924       -2.30711        0.84082
C         -0.41941       -1.36298        0.62423
C         -1.73850       -1.71816        0.51457
C         -2.12703       -3.04647        0.57201
O         -1.44952       -5.41078        0.55511
C          1.34040       -4.67133        1.21413
H          1.56894       -1.97774        0.93439
H         -2.46375       -0.93739        0.36149
C         -3.61901       -3.39247        0.44789
C          4.49640        1.06220        0.04855
C          3.82527        0.16368       -0.82123
C          2.45575        0.01985       -0.68160
C          1.76593        0.64950        0.32084
C          2.43156        1.42884        1.23227
C          3.80061        1.62348        1.15161
O          5.83007        1.45773       -0.22978
C          4.52565       -0.67489       -1.90385
H          1.89929       -0.57439       -1.38457
H          1.86569        1.90187        2.01477
C          4.48219        2.42207        2.27635
C          2.46446       -4.02700        2.05733
C          0.79710       -5.86177        2.02514
C          1.94585       -5.16363       -0.10901
C         -4.49456       -2.25161        1.01328
C         -3.97097       -3.58306       -1.03570
C         -3.96515       -4.66101        1.24806
C         -1.37429       -5.89719       -0.77921
H          3.18880       -4.77723        2.37371
H          3.01168       -3.27384        1.49238
H          2.05717       -3.55716        2.95221
H          1.59616       -6.55486        2.28705
H          0.33115       -5.51679        2.94756
H          0.05101       -6.41763        1.46270
H          1.20064       -5.66091       -0.72434
H          2.34428       -4.32879       -0.68394
H          2.75743       -5.86822        0.07089
H         -4.44310       -1.36207        0.38799
H         -5.54163       -2.55080        1.05503
H         -4.18170       -1.98485        2.02245
H         -3.75645       -2.67624       -1.60100
H         -3.39373       -4.39076       -1.47848
H         -5.02802       -3.81657       -1.15986
H         -3.68220       -4.54367        2.29359
H         -5.03374       -4.87056        1.20714
H         -3.44476       -5.53195        0.85811
H         -1.04010       -5.10756       -1.45350
H         -0.67814       -6.73457       -0.82369
H         -2.35400       -6.25514       -1.09488
C          5.90182        2.58991       -1.08060
C          4.02966       -2.13531       -1.81819
C          4.18190       -0.10813       -3.29130
C          6.05314       -0.70877       -1.72424
C          4.15358        3.91533        2.11527
C          3.95701        1.93509        3.64558
C          6.00871        2.22899        2.28826
H          4.19755       -2.53859       -0.82006
H          2.96715       -2.21534       -2.04145
H          4.55908       -2.76830       -2.52979
H          4.64768       -0.69892       -4.07953
H          3.10532       -0.11513       -3.45895
H          4.52699        0.91896       -3.39327
H          6.51792       -1.38632       -2.44012
H          6.48990        0.27587       -1.87248
H          6.31456       -1.04244       -0.72063
H          3.07718        4.08209        2.14340
H          4.60513        4.50180        2.91503
H          4.52434        4.30014        1.16727
H          4.09771        0.85970        3.75098
H          4.48792        2.42499        4.46144
H          2.89781        2.15126        3.77435
H          6.46576        2.64326        1.39277
H          6.26174        1.17030        2.33325
H          6.46080        2.72391        3.14747
H          5.42172        3.44461       -0.60719
H          6.94781        2.82718       -1.27589
H          5.39737        2.38236       -2.02289
