87
-129.18340418
P         -1.51239       -0.23793       -0.38912
P          1.74871        0.31701        0.24629
C         -1.04403        0.97741       -1.63085
C          1.54763       -0.81195       -1.15201
C          0.06430        0.74134       -2.43522
C          0.44042        1.71671       -3.37912
C         -0.32837        2.86260       -3.50396
C         -1.43782        3.06787       -2.70968
C         -1.79089        2.12178       -1.76739
C          2.14279       -2.03828       -0.97237
C          2.03064       -3.01707       -1.94070
C          1.31431       -2.75883       -3.08883
C          0.69280       -1.53729       -3.28413
C          0.80522       -0.53901       -2.29701
Cl         1.08029       -0.42893        3.34528
Cl        -1.54412       -1.96800        2.43054
H         -2.02002        3.96861       -2.81453
H         -2.64710        2.27694       -1.13176
H          2.69191       -2.22979       -0.06235
H          2.49859       -3.97706       -1.79662
H         -0.04202        3.60523       -4.22919
H          1.22234       -3.51791       -3.84711
C         -2.61098       -4.11648       -2.49906
C         -2.01261       -4.17581       -1.24817
C         -1.71322       -2.98455       -0.60042
C         -1.97373       -1.77466       -1.19935
C         -2.56595       -1.72550       -2.44007
C         -2.89066       -2.90097       -3.09149
H         -2.86144       -5.03341       -3.00480
C         -1.73537       -5.48059       -0.58874
H         -1.29679       -3.00718        0.39106
H         -2.75687       -0.76876       -2.90005
H         -3.35520       -2.86749       -4.06335
C         -5.22226        1.41065        1.70192
C         -5.31871        0.80157        0.46711
C         -4.18579        0.29514       -0.14204
C         -2.96468        0.39579        0.48448
C         -2.87111        1.00087        1.71785
C         -3.99641        1.52359        2.34154
H         -6.10339        1.79985        2.18305
H         -6.27573        0.71894       -0.02152
H         -4.24975       -0.18132       -1.10680
H         -1.92445        1.05607        2.22402
C         -3.88941        2.14803        3.68823
C          6.14152        0.16403        1.44044
C          5.78036        0.26510        0.11142
C          4.44323        0.29960       -0.23943
C          3.47883        0.23386        0.74003
C          3.83936        0.13064        2.06205
C          5.17618        0.08648        2.43435
H          7.18188        0.14302        1.71724
H          6.53897        0.31849       -0.65219
H          4.14623        0.37075       -1.27410
H          3.07275        0.06752        2.81295
C          5.56031       -0.00424        3.86952
C          0.66067        4.69703       -0.36233
C          1.71280        4.14617       -1.06754
C          2.05051        2.81853       -0.88069
C          1.33315        2.05228        0.00757
C          0.30337        2.60860        0.73189
C         -0.05716        3.93670        0.55073
H          0.38836        5.72695       -0.51772
H          2.26442        4.74727       -1.77162
H          2.86240        2.37337       -1.43223
H         -0.22632        2.01268        1.45174
C         -1.20483        4.50665        1.30795
Pd        -0.05887       -0.61948        1.42314
C          1.64832        1.54627       -4.23248
C         -0.07698       -1.31226       -4.53955
H          2.27566        0.72790       -3.87718
H          1.36872        1.33398       -5.26514
H          2.25698        2.45168       -4.22863
H          0.59494       -1.12577       -5.37821
H         -0.68394       -2.18469       -4.78519
H         -0.74965       -0.45883       -4.45094
H         -2.54915       -5.75461        0.08398
H         -1.62086       -6.27893       -1.32329
H         -0.81591       -5.43458       -0.00320
H         -2.91799        2.62592        3.82347
H         -4.65671        2.90998        3.83234
H         -4.00618        1.39796        4.47160
H          4.79706       -0.52692        4.44791
H          6.49864       -0.54691        3.99267
H          5.68617        0.99008        4.30013
H         -2.14002        4.03131        1.00793
H         -1.07823        4.35120        2.38031
H         -1.30377        5.57909        1.13533
