171
-217.84509377
P         -1.62381        0.41129       -0.41924
P          1.60572       -0.39717       -0.38648
C         -0.91031        1.35121       -1.77022
C          0.90992       -1.34825       -1.73896
C         -0.08875        0.73642       -2.70821
C          0.54275        1.53596       -3.68065
C          0.29243        2.89777       -3.70497
C         -0.55518        3.48186       -2.78777
C         -1.14576        2.70378       -1.81137
C          1.14695       -2.70089       -1.76771
C          0.58149       -3.48426       -2.75458
C         -0.24134       -2.90507       -3.69700
C         -0.49429       -1.54327       -3.68358
C          0.11118       -0.73906       -2.69956
Cl         1.49395        0.30347        2.86410
Cl        -1.57093       -0.34912        2.82211
C         -1.37493       -0.94634       -4.72445
C          1.47492        0.94959       -4.68285
H         -0.74842        4.54151       -2.82554
H         -1.79249        3.15374       -1.07519
H          1.77786       -3.14641       -1.01540
H          0.77818       -4.54356       -2.78356
H          0.77294        3.50280       -4.45532
H         -0.69557       -3.51380       -4.46052
C         -3.95476       -3.31072       -1.50293
C         -2.90963       -3.40780       -0.59164
C         -2.18352       -2.25766       -0.31447
C         -2.50411       -1.06633       -0.91623
C         -3.54120       -0.98529       -1.81253
C         -4.29729       -2.11088       -2.11740
H         -4.52321       -4.19114       -1.73185
H         -1.36626       -2.28697        0.38551
H         -3.77203       -0.03324       -2.26087
C         -4.23608        2.92295        2.31643
C         -4.82635        1.91212        1.56620
C         -4.01469        1.18006        0.71014
C         -2.67303        1.45138        0.61190
C         -2.10777        2.45655        1.35709
C         -2.87774        3.20767        2.23474
H         -4.84635        3.49409        2.98899
H         -4.43003        0.37736        0.12659
H         -1.04902        2.63770        1.27705
C          4.29313       -2.93512        2.24472
C          2.92757       -3.19483        2.23232
C          2.12968       -2.42895        1.39356
C          2.67667       -1.43170        0.62486
C          4.02589       -1.18228        0.65668
C          4.86598       -1.93854        1.46377
H          4.93251       -3.51171        2.88631
H          1.06578       -2.59376        1.36105
H          4.41645       -0.38021        0.05662
C          3.90432        3.30961       -1.57469
C          2.90045        3.41949       -0.61979
C          2.18261        2.27432       -0.30267
C          2.47723        1.07698       -0.90561
C          3.47558        0.98247       -1.84339
C          4.21302        2.10633       -2.19802
H          4.47673        4.17971       -1.83505
H          1.39258        2.31089        0.42732
H          3.67853        0.02167       -2.28521
Pd        -0.02229        0.00750        1.22534
C         -1.19277       -5.21918       -0.45715
C         -2.53481       -4.72414        0.10481
C         -3.59995       -5.81384       -0.12436
C         -2.40654       -4.48923        1.62359
H         -0.41188       -4.47513       -0.30766
H         -0.87943       -6.14296        0.02883
H         -1.27215       -5.40957       -1.52713
H         -3.34453       -6.72376        0.41864
H         -4.57830       -5.48266        0.22359
H         -3.67739       -6.07495       -1.17948
H         -2.18237       -5.41997        2.14440
H         -1.61010       -3.78392        1.85544
H         -3.33502       -4.08955        2.03059
C         -4.99603       -1.57821       -4.46944
C         -5.49435       -1.98638       -3.07275
C         -6.46153       -0.91403       -2.53671
C         -6.26638       -3.31427       -3.19863
H         -4.32142       -2.33347       -4.87124
H         -5.82880       -1.46863       -5.16394
H         -4.46273       -0.62894       -4.43581
H         -7.34415       -0.83205       -3.17079
H         -6.79214       -1.16308       -1.52849
H         -5.98606        0.06524       -2.50383
H         -6.64337       -3.64175       -2.22985
H         -7.12183       -3.20203       -3.86470
H         -5.63268       -4.10038       -3.60872
C         -7.02897        2.39506        2.75099
C         -6.32161        1.57465        1.65523
C         -6.48905        0.07860        1.98621
C         -6.98672        1.88378        0.30253
H         -8.08258        2.12385        2.81714
H         -6.57890        2.21408        3.72695
H         -6.97831        3.46267        2.53819
H         -7.54190       -0.18158        2.09370
H         -6.07102       -0.55321        1.20357
H         -5.98293       -0.16701        2.91956
H         -8.05037        1.64737        0.32591
H         -6.87944        2.93912        0.05257
H         -6.53161        1.30413       -0.49897
C         -1.12129        3.58284        3.97846
C         -2.19359        4.26805        3.10903
C         -3.19619        4.97838        4.03816
C         -1.53166        5.32337        2.20576
H         -0.62301        4.30373        4.62616
H         -1.57031        2.81469        4.60758
H         -0.35931        3.10308        3.36566
H         -3.96862        5.48993        3.46420
H         -3.67678        4.26925        4.71187
H         -2.69209        5.72522        4.65145
H         -1.04660        6.09815        2.79926
H         -0.77559        4.87189        1.56669
H         -2.27127        5.80103        1.56349
C          3.30366       -4.97493        4.01381
C          2.26884       -4.24705        3.13514
C          1.54858       -5.28913        2.26143
C          1.24862       -3.54874        4.05529
H          2.81840       -5.71647        4.64834
H          4.04050       -5.49554        3.40242
H          3.82607       -4.27491        4.66559
H          0.76738       -4.82448        1.66313
H          2.24870       -5.77340        1.58097
H          1.08326       -6.06028        2.87511
H          0.77313       -4.26366        4.72630
H          1.73719       -2.78672        4.66198
H          0.46392       -3.05940        3.47966
C          6.80742       -0.56295        0.56037
C          6.37790       -1.68063        1.53195
C          7.13383       -2.96812        1.15509
C          6.75364       -1.25530        2.96286
H          6.32129        0.38074        0.80732
H          7.88405       -0.40039        0.60863
H          6.55841       -0.82192       -0.46859
H          8.21156       -2.80669        1.17254
H          6.90802       -3.77848        1.84711
H          6.85796       -3.29655        0.15316
H          7.82025       -1.04528        3.04059
H          6.20975       -0.35596        3.25125
H          6.51351       -2.03625        3.68342
C          1.22348        5.26662       -0.50924
C          2.55209        4.74929        0.06425
C          3.64305        5.81202       -0.17105
C          2.41263        4.53484        1.58510
H          0.92326        6.19767       -0.02888
H          1.31366        5.45124       -1.57941
H          0.42884        4.53645       -0.36320
H          4.61413        5.45658        0.17335
H          3.72320        6.07000       -1.22669
H          3.41248        6.72899        0.37120
H          2.21413        5.47747        2.09484
H          1.59471        3.85672        1.82230
H          3.32786        4.11300        1.99969
C          6.69182        2.34412       -2.44484
C          5.38092        2.03985       -3.19286
C          5.17315        3.07885       -4.31132
C          5.49894        0.64513       -3.83829
H          7.54704        2.29314       -3.11848
H          6.67182        3.34015       -2.00378
H          6.85202        1.62638       -1.64079
H          4.23247        2.90654       -4.83241
H          5.15394        4.09306       -3.91477
H          5.97766        3.02634       -5.04471
H          5.70075       -0.11937       -3.08831
H          4.58434        0.37744       -4.36641
H          6.31620        0.62061       -4.55898
H         -0.79501       -0.63010       -5.59217
H          1.02369        0.93704       -5.67592
H         -1.90764       -0.07624       -4.33795
H         -2.11822       -1.66640       -5.06747
H          1.75239       -0.07286       -4.42340
H          2.39348        1.53347       -4.74153
