59
-75.80008138
Cl         1.50306        0.77560        2.32848
P          1.61563       -0.11763       -0.77831
P         -1.58617       -0.21987       -0.83740
C          0.65635        0.34732       -2.28830
H          0.41273        1.41066       -2.21483
H          1.30046        0.21539       -3.16324
C         -0.59540       -0.48177       -2.37265
H         -0.35402       -1.54308       -2.45836
H         -1.21263       -0.21852       -3.23705
C          2.38499       -1.78216       -1.05131
H          1.85542       -2.20402       -1.91546
C          3.16886        0.87299       -0.63898
H          3.46875        0.83118        0.41513
C         -2.87243       -1.50389       -0.46866
H         -2.77740       -1.72316        0.60202
C         -2.67272        1.26830       -1.03309
H         -2.70715        1.48573       -2.10764
C          3.85422       -1.47082       -1.42380
H          4.51921       -1.92844       -0.68103
H          4.11845       -1.96202       -2.37216
C          4.14224        0.05647       -1.50734
H          4.04332        0.39435       -2.54892
H          5.18355        0.27759       -1.22607
C         -4.19358       -0.76318       -0.74413
H         -4.50537       -0.96886       -1.77749
H         -4.99717       -1.16481       -0.10812
C         -4.04307        0.76930       -0.54459
H         -4.14616        1.00948        0.52262
H         -4.85466        1.31341       -1.05126
C          2.21825       -2.68800        0.16866
H          2.59250       -3.69195       -0.07609
H          1.14671       -2.81870        0.36948
C          2.99523        2.32259       -1.07464
H          3.98330        2.79965       -1.13699
H          2.60210        2.34261       -2.09918
C         -2.69972       -2.78415       -1.27905
H         -3.61466       -3.38699       -1.19364
H         -2.62534       -2.52328       -2.34277
C         -2.13174        2.47227       -0.27272
H         -2.07005        2.22001        0.79390
H         -1.09637        2.65829       -0.58687
C          2.90206       -2.18100        1.43075
H          2.69105       -2.81834        2.29259
H          2.56870       -1.17533        1.68365
H          3.98641       -2.13877        1.32217
C          2.09235        3.11510       -0.14276
H          2.49763        3.14140        0.87047
H          1.10261        2.66342       -0.07448
H          1.96167        4.14781       -0.47375
C         -1.49833       -3.60756       -0.84344
H         -1.38536       -4.51696       -1.43804
H         -1.58346       -3.90683        0.20300
H         -0.57402       -3.03877       -0.93721
C         -2.96826        3.72759       -0.46816
H         -3.02491        4.00287       -1.52301
H         -3.99163        3.58105       -0.11819
H         -2.55646        4.58222        0.07350
Cl        -1.76009        0.14078        2.26753
Pd        -0.02493        0.07886        0.84441
