87
-129.18457267
P         -1.51231       -0.24007       -0.37974
P          1.73969        0.30955        0.24900
C         -1.04886        0.97863       -1.61959
C          1.53247       -0.81588       -1.15161
C          0.05326        0.74275       -2.43237
C          0.42225        1.71886       -3.37839
C         -0.34670        2.86558       -3.49526
C         -1.44894        3.07132       -2.69105
C         -1.79538        2.12417       -1.74735
C          2.12339       -2.04441       -0.97319
C          2.01166       -3.02051       -1.94427
C          1.30007       -2.75729       -3.09419
C          0.68213       -1.53370       -3.28822
C          0.79427       -0.53800       -2.29832
Cl         1.09314       -0.43464        3.35083
Cl        -1.61654       -1.90998        2.41720
H         -2.03118        3.97269       -2.79007
H         -2.64683        2.27830       -1.10497
H          2.66966       -2.23957       -0.06220
H          2.47623       -3.98224       -1.80092
H         -0.06594        3.60873       -4.22214
H          1.20804       -3.51443       -3.85438
C         -2.54506       -4.13430       -2.49387
C         -1.94778       -4.18517       -1.24219
C         -1.65793       -2.98958       -0.59767
C         -1.95305       -1.78371       -1.18875
C         -2.55888       -1.74322       -2.42323
C         -2.85897       -2.92325       -3.07822
H         -2.76477       -5.05453       -3.00785
C         -1.58649       -5.48583       -0.61603
H         -1.21694       -3.00654        0.38328
H         -2.77436       -0.78925       -2.87822
H         -3.32736       -2.89651       -4.04844
C         -5.24541        1.39172        1.68231
C         -5.34108        0.72136        0.47956
C         -4.20277        0.21615       -0.12033
C         -2.97647        0.38356        0.48116
C         -2.88338        1.05073        1.68167
C         -4.01668        1.55718        2.30460
H         -6.12896        1.79085        2.15071
H         -6.30124        0.59283        0.00726
H         -4.26635       -0.30754       -1.06011
H         -1.92896        1.16969        2.16112
C         -3.90436        2.29398        3.59291
C          6.13989        0.12755        1.41598
C          5.77046        0.24147        0.09031
C          4.43123        0.28478       -0.25145
C          3.47270        0.21558        0.73357
C          3.84173        0.09982        2.05220
C          5.18065        0.04609        2.41540
H          7.18191        0.09953        1.68581
H          6.52427        0.29801       -0.67781
H          4.12808        0.36521       -1.28364
H          3.08004        0.03511        2.80788
C          5.57380       -0.05851        3.84719
C          0.68480        4.69715       -0.36108
C          1.71531        4.13277       -1.08724
C          2.04540        2.80321       -0.90040
C          1.34137        2.04846        0.00813
C          0.33608        2.61897        0.75502
C         -0.01477        3.95034        0.57672
H          0.41518        5.72750       -0.51859
H          2.25480        4.72446       -1.80848
H          2.83956        2.34741       -1.46868
H         -0.17644        2.03187        1.49426
C         -1.14674        4.53545        1.34558
Pd        -0.06891       -0.60942        1.44517
C          1.62308        1.54924       -4.24184
C         -0.08617       -1.30492       -4.54390
H          1.33500        1.33825       -5.27244
H          2.23174        2.45466       -4.24216
H          2.25329        0.73048       -3.89258
H         -0.76323       -0.45537       -4.45136
H          0.58646       -1.11059       -5.38018
H         -0.68856       -2.17869       -4.79589
H         -0.56220       -5.76439       -0.86782
H         -1.66295       -5.43173        0.47094
H         -2.24716       -6.28477       -0.95548
H         -3.04503        1.94790        4.16923
H         -3.78397        3.36410        3.41840
H         -4.79415        2.14977        4.20731
H          5.71131        0.93147        4.28419
H          4.81001       -0.57878        4.42705
H          6.50816       -0.61022        3.95983
H         -1.09939        5.62517        1.35483
H         -2.10250        4.24301        0.90805
H         -1.13326        4.19310        2.38140
