171
-217.83383550
P         -1.63217        0.43285       -0.39531
P          1.54246       -0.49314       -0.03480
C         -0.82923        1.22568       -1.79407
C          0.70840       -1.50615       -1.27516
C          0.01892        0.49052       -2.61402
C          0.72525        1.15464       -3.63531
C          0.51607        2.51109       -3.82333
C         -0.36179        3.21462       -3.02430
C         -1.02412        2.56899       -1.99778
C          0.67009       -2.85732       -1.02387
C          0.07912       -3.72008       -1.92602
C         -0.48690       -3.21796       -3.07743
C         -0.48758       -1.85744       -3.33627
C          0.11831       -0.97883       -2.41798
Cl         1.33165        0.65438        2.99931
Cl        -1.82664       -0.15879        2.97038
C         -1.11399       -1.34679       -4.58671
C          1.69536        0.43597       -4.50574
H         -0.52426        4.26631       -3.19444
H         -1.69526        3.11218       -1.35182
H          1.11018       -3.23993       -0.11543
H          0.06892       -4.78052       -1.73477
H          1.05266        3.01676       -4.60838
H         -0.94846       -3.88618       -3.78475
C         -4.20066       -3.21206       -1.17117
C         -3.32865       -3.20189       -0.08925
C         -2.53890       -2.07601        0.09355
C         -2.60184       -1.02355       -0.78493
C         -3.47151       -1.04612       -1.84838
C         -4.30065       -2.14316       -2.05600
H         -4.83260       -4.06676       -1.31566
H         -1.89874       -2.00010        0.95611
H         -3.52463       -0.18939       -2.49876
C         -4.32186        3.21923        1.97476
C         -4.89406        2.21018        1.21106
C         -4.04595        1.39819        0.46866
C         -2.68861        1.60740        0.47747
C         -2.14352        2.62493        1.22231
C         -2.95039        3.44096        2.00453
H         -4.96700        3.83140        2.57626
H         -4.43681        0.57594       -0.10382
H         -1.07562        2.75913        1.22728
C          4.94595       -3.07888        1.51421
C          4.64076       -3.08410        0.15959
C          3.58708       -2.28723       -0.26974
C          2.87026       -1.52673        0.62312
C          3.19278       -1.53556        1.95596
C          4.23642       -2.31601        2.43237
H          5.76426       -3.68149        1.86336
H          3.30817       -2.26285       -1.30922
H          2.62953       -0.90902        2.62109
C          3.76986        3.18592       -1.46240
C          2.71713        3.35536       -0.57136
C          2.00364        2.22693       -0.18785
C          2.35147        0.98497       -0.66045
C          3.40678        0.83586       -1.52725
C          4.13893        1.93885       -1.94964
H          4.33905        4.04208       -1.77144
H          1.18408        2.31260        0.50300
H          3.66932       -0.15340       -1.85709
Pd        -0.19812        0.10709        1.44092
C         -1.80610       -4.83912        1.05398
C         -3.25795       -4.33775        0.94079
C         -4.15324       -5.52640        0.54258
C         -3.72663       -3.80215        2.30663
H         -1.45391       -5.21311        0.09352
H         -1.13346       -4.04350        1.37202
H         -1.72861       -5.64889        1.77917
H         -4.07157       -6.33277        1.27134
H         -5.20130       -5.23131        0.49601
H         -3.86230       -5.92706       -0.42837
H         -4.74647       -3.42345        2.24210
H         -3.70364       -4.58636        3.06296
H         -3.09042       -2.98737        2.65071
C         -4.62985       -1.93789       -4.54123
C         -5.33954       -2.11350       -3.18883
C         -6.30396       -0.93623       -2.95664
C         -6.16561       -3.41378       -3.24312
H         -5.35018       -1.91083       -5.35875
H         -4.06027       -1.01015       -4.57069
H         -3.94746       -2.76722       -4.72388
H         -6.81732       -1.04460       -2.00169
H         -5.77216        0.01452       -2.94821
H         -7.05907       -0.88910       -3.74110
H         -5.52501       -4.27875       -3.41434
H         -6.71767       -3.56793       -2.31615
H         -6.89190       -3.37612       -4.05499
C         -6.81177        1.55933        2.68250
C         -6.41124        1.98063        1.25731
C         -6.84650        0.87379        0.27763
C         -7.14134        3.28108        0.87265
H         -6.28895        0.64871        2.97459
H         -6.56315        2.33379        3.40726
H         -7.88316        1.37061        2.74788
H         -7.92768        0.73808        0.30121
H         -6.56677        1.12950       -0.74391
H         -6.39013       -0.08211        0.53445
H         -6.84160        3.61032       -0.12212
H         -8.22134        3.13465        0.86829
H         -6.91912        4.08519        1.57293
C         -1.30675        3.80057        3.86013
C         -2.30295        4.49686        2.91193
C         -3.34944        5.23815        3.76592
C         -1.56238        5.52772        2.04448
H         -0.51387        3.29860        3.30768
H         -0.83984        4.51891        4.53348
H         -1.81369        3.04877        4.46451
H         -3.89469        4.54500        4.40625
H         -2.87006        5.97483        4.41052
H         -4.06576        5.76732        3.13776
H         -2.24869        6.01596        1.35285
H         -1.09642        6.29660        2.66053
H         -0.78057        5.05035        1.45865
C          6.92213       -3.43843       -0.81171
C          5.46605       -3.93776       -0.81330
C          4.91879       -3.84951       -2.25214
C          5.41903       -5.41105       -0.36744
H          7.36812       -3.52545        0.17846
H          7.53348       -4.01482       -1.50585
H          6.96996       -2.39088       -1.10877
H          4.96263       -2.82779       -2.62839
H          5.50440       -4.47304       -2.92753
H          3.88492       -4.19137       -2.29987
H          4.39041       -5.76989       -0.33479
H          5.97597       -6.04503       -1.05718
H          5.85047       -5.54044        0.62433
C          4.51373       -3.78708        4.44492
C          4.62506       -2.34472        3.91752
C          3.70323       -1.44445        4.76406
C          6.07252       -1.84370        4.07271
H          4.76359       -3.83527        5.50466
H          3.49910       -4.16476        4.31972
H          5.18821       -4.45715        3.91318
H          2.66453       -1.76568        4.68969
H          3.98555       -1.48121        5.81603
H          3.76579       -0.40507        4.44267
H          6.77193       -2.47966        3.53127
H          6.17202       -0.83035        3.68410
H          6.37218       -1.83470        5.12053
C          3.42153        5.78722       -0.29535
C          2.33736        4.73091       -0.00379
C          2.16796        4.63253        1.52561
C          1.02017        5.18846       -0.64830
H          3.16515        6.74095        0.16588
H          4.38742        5.47487        0.10139
H          3.52647        5.96156       -1.36586
H          1.93198        5.60577        1.95558
H          1.36608        3.94914        1.79821
H          3.08476        4.27155        1.99104
H          0.69823        6.14910       -0.24677
H          1.13977        5.29698       -1.72580
H          0.22903        4.46152       -0.47216
C          5.57842        0.35267       -3.32807
C          5.37597        1.80452       -2.85015
C          6.62182        2.22809       -2.05031
C          5.22387        2.71262       -4.08502
H          4.71312       -0.00562       -3.88426
H          6.44606        0.27867       -3.98351
H          5.74763       -0.31661       -2.48488
H          7.52474        2.13084       -2.65287
H          6.54742        3.26478       -1.72369
H          6.73868        1.60583       -1.16313
H          4.32860        2.45669       -4.64965
H          5.14961        3.76142       -3.80071
H          6.08104        2.61044       -4.75036
H         -1.61486       -0.39275       -4.41611
H          1.33111        0.37631       -5.53227
H         -1.85215       -2.04941       -4.97262
H         -0.36579       -1.20220       -5.36642
H          1.87994       -0.57839       -4.14925
H          2.65239        0.95636       -4.52396
