105
-153.06323902
Cl        -0.06593        3.08870        2.57694
Pd        -0.32540        1.91395        0.67396
P         -0.75229        0.48848       -1.18205
N          0.40521       -0.77977       -1.57553
C          0.55648       -2.15219       -1.32007
C          0.03244       -2.81330       -0.17640
C          0.47101       -4.11971        0.12946
C          0.14082       -4.72733        1.47184
C          1.20642       -5.73040        1.93349
C          1.39436       -6.81233        0.86508
C          1.82491       -6.20195       -0.48202
C          1.31152       -4.80496       -0.75226
C          1.75524       -4.16102       -1.90052
C          1.41001       -2.86116       -2.16387
H          1.80728       -2.35986       -3.02969
H          2.41473       -4.68719       -2.57001
H          2.92023       -6.17454       -0.53278
H          2.11712       -7.56905        1.20086
H          2.15614       -5.20377        2.08999
H          0.01470       -3.93162        2.21649
C         -0.77355       -2.06606        0.81920
C         -0.11873       -1.06236        1.56944
C         -0.81650       -0.40186        2.57626
C         -2.12584       -0.71609        2.83397
C         -2.78907       -1.69860        2.10592
C         -4.22194       -2.00695        2.44937
C         -4.64105       -3.41685        2.01061
C         -4.30701       -3.63030        0.53158
C         -2.80481       -3.43810        0.25241
C         -2.11814       -2.37858        1.08609
H         -2.29353       -4.39248        0.40195
H         -4.88407       -2.91669       -0.06618
H         -5.70962       -3.58913        2.20291
H         -4.86646       -1.26077        1.96987
H         -2.65944       -0.19043        3.60748
H         -0.31733        0.37284        3.13096
N          1.19699       -0.73891        1.25372
P          1.75484        0.92760        1.19542
C          2.57521        1.18737       -0.38243
C          3.38860        0.20135       -0.89201
C          3.87378        0.30938       -2.18276
C          3.56307        1.41318       -2.96402
C          2.76514        2.41055       -2.42206
C          2.27416        2.29806       -1.13530
H          1.64006        3.06840       -0.72643
H          2.50913        3.26626       -3.02336
C          4.04050        1.50268       -4.37151
H          4.48845       -0.47201       -2.59648
H          3.61172       -0.66973       -0.29696
C          2.91740        1.20207        2.53182
C          3.89857        0.26025        2.73321
C          4.83334        0.44350        3.73733
C          4.79393        1.57497        4.54104
C          3.78627        2.50665        4.33140
C          2.85311        2.31896        3.32945
H          2.05540        3.02632        3.18196
H          3.73301        3.37700        4.96295
C          5.78364        1.76149        5.63804
H          5.59969       -0.29432        3.90298
H          3.92449       -0.61919        2.10918
H          1.58423       -1.20371        0.44030
H          1.24291       -0.26586       -1.82415
C         -0.61980        1.64532       -2.55455
C         -0.04232        1.20223       -3.72136
C          0.09924        2.06305       -4.79486
C         -0.34855        3.37405       -4.71027
C         -0.93780        3.80166       -3.52840
C         -1.07854        2.93718       -2.46014
H         -1.55143        3.26286       -1.54976
H         -1.28500        4.81775       -3.44985
C         -0.16320        4.31419       -5.84998
H          0.56528        1.72204       -5.70348
H          0.30400        0.18382       -3.78747
C         -2.39502       -0.21069       -1.34324
C         -2.55828       -1.15255       -2.33198
C         -3.81689       -1.66070       -2.60407
C         -4.92160       -1.22755       -1.88405
C         -4.73909       -0.26958       -0.89601
C         -3.48190        0.23955       -0.63313
H         -3.35137        1.02126        0.09406
H         -5.59217        0.08959       -0.34614
C         -6.28107       -1.74972       -2.19554
H         -3.94781       -2.39384       -3.38144
H         -1.69668       -1.47950       -2.89304
Cl        -2.34694        2.87541        0.45471
H          1.51387       -6.85233       -1.30924
H          0.94489       -6.17106        2.90592
H          0.44783       -7.35235        0.73512
H         -0.82424       -5.24014        1.41377
H         -4.64095       -4.62289        0.19818
H         -2.64458       -3.20077       -0.80564
H         -4.37271       -1.87923        3.52891
H         -4.10627       -4.16011        2.61531
H          4.04682        2.53569       -4.72205
H          5.05514        1.11361       -4.46720
H          3.39423        0.92710       -5.03573
H          5.42377        1.31217        6.56459
H          6.73973        1.29913        5.38869
H          5.96765        2.82011        5.82649
H          0.79004        4.83825       -5.76799
H         -0.17522        3.78450       -6.80357
H         -0.95734        5.06162       -5.87690
H         -6.23908       -2.79437       -2.50728
H         -6.93622       -1.69003       -1.32524
H         -6.74026       -1.17602       -3.00165
