111
-148.55355851
P         -2.70650        1.93339       -0.35110
P          0.06154        0.54676        0.31958
C         -1.92235        2.21694        1.26006
C         -0.69310        1.65284        1.52540
C         -3.56485        3.45212       -0.96982
C         -2.77431        4.13359       -2.06533
C         -2.54768        2.98482        2.22156
H         -3.51748        3.40835        2.01811
C         -1.93313        3.19156        3.44473
H         -2.42082        3.79094        4.19608
C         -0.69812        2.62902        3.70523
H         -0.22179        2.78750        4.65873
C         -0.07761        1.85245        2.74318
H          0.87779        1.38944        2.93547
Pd        -1.09176        0.91623       -1.65187
Cl        -2.48947        1.16055       -3.38788
Cl         0.60269       -0.07217       -2.74760
C         -4.93994        2.91161       -1.40349
C         -4.12746        0.74869       -0.29775
H         -2.63879        3.46786       -2.91850
H         -3.28320        5.03050       -2.42601
H         -1.78067        4.42385       -1.71567
H         -4.89604        2.65358       -2.47063
H         -5.70580        3.69777       -1.32019
H         -3.96937        0.04866       -1.12919
C         -5.34206        1.65196       -0.58349
C         -4.18385        0.01042        1.02207
H         -3.67522        4.11964       -0.10582
H         -5.78357        1.96370        0.37307
H         -6.12957        1.08234       -1.09993
H         -4.27345        0.71071        1.85457
H         -5.03879       -0.66841        1.06442
H         -3.27799       -0.57725        1.18416
C         -1.20873       -3.74086        1.18318
C         -0.59119       -3.41646       -0.05166
C         -0.23647       -2.09853       -0.27769
C         -0.40358       -1.14301        0.68824
C         -0.89818       -1.47181        1.92265
C         -1.27868       -2.77051        2.21576
O         -1.79066       -5.02261        1.37185
C         -0.33669       -4.45369       -1.15578
H          0.16048       -1.78653       -1.22781
H         -0.99672       -0.69115        2.65595
C         -1.78910       -3.09947        3.62741
C          4.58507        0.97056        0.04371
C          3.74874        1.91919       -0.59911
C          2.37637        1.78528       -0.46274
C          1.83655        0.71962        0.20773
C          2.63733       -0.25821        0.73774
C          4.01664       -0.18365        0.64026
O          5.98602        1.19254        0.11783
C          4.30909        3.08247       -1.43243
H          1.70483        2.51158       -0.88774
H          2.16461       -1.09087        1.22932
C          4.86820       -1.34054        1.18630
C         -0.06864       -5.84699       -0.55899
C         -1.55115       -4.50128       -2.09532
C          0.91199       -4.07101       -1.98335
C         -3.31048       -2.89253        3.68114
C         -1.43571       -4.54531        4.02067
C         -1.13014       -2.17376        4.67544
C         -3.15304       -5.10338        0.97187
H         -0.93618       -6.22303       -0.02268
H          0.17398       -6.56760       -1.33959
H          0.76605       -5.81032        0.14030
H         -1.39543       -5.22056       -2.89886
H         -2.45359       -4.78561       -1.55943
H         -1.72731       -3.52463       -2.54577
H          0.74641       -3.17006       -2.57204
H          1.77045       -3.90304       -1.33386
H          1.17143       -4.86570       -2.68234
H         -3.70101       -3.12405        4.67174
H         -3.56738       -1.85882        3.45157
H         -3.82103       -3.52806        2.96167
H         -1.93270       -5.26488        3.37482
H         -0.36191       -4.71242        3.94300
H         -1.73907       -4.75813        5.04545
H         -1.46153       -1.14194        4.56759
H         -1.38915       -2.48806        5.68626
H         -0.04437       -2.19737        4.58545
H         -3.49868       -4.13786        0.60015
H         -3.26106       -5.85386        0.18901
H         -3.76559       -5.40681        1.82074
C          6.39647        1.92267        1.26684
C          5.62978        2.68627       -2.11749
C          3.32029        3.47230       -2.55504
C          4.52880        4.30154       -0.52442
C          5.19134       -1.08058        2.66518
C          4.10295       -2.67946        1.07440
C          6.16923       -1.50022        0.37881
H          5.49236        1.79370       -2.72695
H          5.99210        3.48588       -2.76307
H          6.40746        2.47517       -1.38763
H          3.76830        4.20121       -3.22994
H          3.03919        2.59921       -3.14351
H          2.41307        3.92268       -2.15522
H          3.59322        4.60732       -0.05672
H          5.23809        4.07882        0.26914
H          4.91456        5.14733       -1.09301
H          5.78826       -1.89099        3.08277
H          5.74770       -0.15455        2.78978
H          4.27599       -0.99872        3.25090
H          3.24529       -2.71301        1.74464
H          3.74911       -2.83828        0.05617
H          4.74782       -3.51715        1.33892
H          6.80596       -0.62430        0.47510
H          5.94906       -1.63829       -0.67924
H          6.74067       -2.36223        0.72212
H          5.53290        2.18740        1.87827
H          7.08762        1.31988        1.85566
H          6.91477        2.82998        0.95700
