111
-148.55520652
P         -2.61980        1.93390        0.93481
P          0.15395        0.48968        0.44838
C         -1.49634        1.64766        2.33148
C         -0.26352        1.07497        2.10192
C         -3.58513        3.50045        1.13155
C         -3.00278        4.62998        0.31043
C         -1.86317        1.99497        3.61613
H         -2.83564        2.42226        3.79661
C         -0.98760        1.77639        4.66585
H         -1.27382        2.04749        5.66898
C          0.25028        1.20926        4.43090
H          0.93027        1.03660        5.24880
C          0.61147        0.85188        3.14435
H          1.56530        0.38883        2.94500
Pd        -1.30809        1.62075       -0.93869
Cl        -2.96046        2.51899       -2.16430
Cl        -0.10771        0.99944       -2.73423
C         -5.00592        3.06759        0.72612
C         -4.00057        0.70853        0.79666
H         -3.00619        4.38147       -0.75129
H         -3.57787        5.55059        0.43373
H         -1.96813        4.83483        0.59538
H         -5.13051        3.23495       -0.35277
H         -5.75696        3.70748        1.21420
H         -3.98439        0.34951       -0.24122
C         -5.25592        1.56625        1.04961
C         -3.81910       -0.43914        1.76633
H         -3.55823        3.75168        2.19925
H         -5.54635        1.46424        2.10425
H         -6.10767        1.17742        0.47122
H         -4.64866       -1.14754        1.70758
H         -2.89558       -0.98503        1.56492
H         -3.76546       -0.07328        2.79341
C         -1.21874       -3.83512        0.02188
C         -0.93333       -3.31079        1.30849
C         -0.50503       -1.99740        1.40240
C         -0.42279       -1.20019        0.29160
C         -0.78654       -1.67551       -0.93940
C         -1.23486       -2.97341       -1.10417
O         -1.44793       -5.22703       -0.14272
C         -1.04998       -4.15281        2.58808
H         -0.22074       -1.57798        2.35123
H         -0.69670       -1.01280       -1.78168
C         -1.70651       -3.42265       -2.49538
C          4.58889        0.66966       -0.56350
C          3.93279       -0.58239       -0.45076
C          2.58027       -0.58628       -0.15710
C          1.90297        0.57913        0.08968
C          2.55280        1.78496        0.08157
C          3.90662        1.86135       -0.20546
O          5.91608        0.73268       -1.06552
C          4.64796       -1.92460       -0.67230
H          2.02895       -1.50993       -0.12866
H          1.98099        2.67154        0.29529
C          4.60584        3.22924       -0.15834
C         -1.37450       -3.25714        3.80571
C         -2.18981       -5.18078        2.47099
C          0.28480       -4.86767        2.84752
C         -2.33607       -2.23601       -3.26206
C         -0.50279       -3.94264       -3.29549
C         -2.78896       -4.51210       -2.39131
C         -0.27272       -5.97593       -0.42668
H         -0.54277       -2.60085        4.05757
H         -2.25200       -2.64093        3.61193
H         -1.58061       -3.86357        4.68738
H         -2.31423       -5.73566        3.40055
H         -3.13238       -4.68395        2.24338
H         -1.99367       -5.90202        1.68141
H          0.23920       -5.46092        3.76044
H          0.54120       -5.53350        2.02704
H          1.09423       -4.14562        2.95352
H         -2.79128       -2.57397       -4.19258
H         -3.11123       -1.75625       -2.66502
H         -1.59378       -1.48410       -3.52513
H          0.25339       -3.16504       -3.40164
H         -0.03677       -4.79116       -2.80001
H         -0.80457       -4.25879       -4.29365
H         -3.16854       -4.78292       -3.37621
H         -2.40018       -5.41577       -1.92894
H         -3.62702       -4.16317       -1.78884
H         -0.36960       -6.45626       -1.40010
H          0.60268       -5.32513       -0.42823
H         -0.14597       -6.75424        0.32572
C          5.99550        0.86313       -2.47942
C          6.12078       -1.84773       -0.23165
C          3.98442       -3.04215        0.16634
C          4.55576       -2.30980       -2.15664
C          6.07751        3.08646        0.27096
C          4.51899        3.89143       -1.54179
C          3.92528        4.15592        0.87469
H          6.61127       -2.81552       -0.33310
H          6.67801       -1.13234       -0.83114
H          6.19355       -1.53806        0.81037
H          2.98389       -3.27827       -0.19347
H          4.56662       -3.96191        0.11445
H          3.91259       -2.75049        1.21384
H          5.04426       -3.26584       -2.34320
H          3.51479       -2.39586       -2.46773
H          5.02829       -1.56193       -2.78870
H          6.14929        2.57685        1.23124
H          6.64902        2.51280       -0.45433
H          6.55385        4.06175        0.36788
H          4.99351        4.87235       -1.53601
H          5.00886        3.28587       -2.30032
H          3.47945        4.02040       -1.84222
H          3.85613        3.66820        1.84673
H          2.92237        4.44168        0.56114
H          4.49419        5.07665        1.00208
H          6.53685        1.77455       -2.73249
H          6.54227        0.01697       -2.89515
H          4.99592        0.90039       -2.91441
