105
-153.05816863
Cl         0.70579        3.72559        1.37986
Pd        -0.10747        1.98030        0.21571
P         -0.76511        0.24807       -1.28474
N          0.10677       -1.15221       -1.93609
C          0.19260       -2.48090       -1.53169
C         -0.12131       -2.95350       -0.22787
C          0.20655       -4.28258        0.12043
C          0.12709       -4.71761        1.56605
C         -0.03670       -6.23471        1.73175
C          1.05129       -6.97323        0.94594
C          0.99197       -6.61845       -0.54998
C          0.69820       -5.16546       -0.84448
C          0.91814       -4.70135       -2.13428
C          0.69528       -3.38955       -2.46277
H          0.91682       -3.04094       -3.45671
H          1.29506       -5.38453       -2.87668
H          1.93604       -6.89107       -1.03874
H          2.03522       -6.69902        1.34698
H         -0.02103       -6.52067        2.79301
H          1.04658       -4.39274        2.06793
C         -0.70940       -2.07988        0.82271
C          0.11113       -1.08895        1.42135
C         -0.34949       -0.40858        2.54854
C         -1.59337       -0.67780        3.05804
C         -2.42906       -1.62040        2.46549
C         -3.78167       -1.87125        3.07819
C         -4.35971       -3.24354        2.70285
C         -4.30943       -3.44767        1.18571
C         -2.87145       -3.34550        0.64737
C         -1.99623       -2.32095        1.33622
H         -2.39164       -4.32735        0.71926
H         -4.93485       -2.68776        0.70401
H         -5.38595       -3.35532        3.08073
H         -4.46650       -1.07832        2.75561
H         -1.94399       -0.14239        3.92395
H          0.27272        0.34509        2.99528
N          1.27061       -0.72511        0.74303
P          1.82987        0.89046        0.96867
C          2.93420        1.34265       -0.36485
C          3.45067        0.36650       -1.18305
C          4.21579        0.72554       -2.27799
C          4.45609        2.06295       -2.56427
C          3.92881        3.03301       -1.72187
C          3.16253        2.67186       -0.62937
H          2.70067        3.41776       -0.00240
H          4.10859        4.07280       -1.93504
C          5.28514        2.44522       -3.74063
H          4.62519       -0.03294       -2.92317
H          3.24346       -0.67001       -0.97113
C          2.62551        0.98551        2.57130
C          2.56181        2.12179        3.34059
C          3.18155        2.15388        4.57500
C          3.87521        1.04662        5.04505
C          3.91932       -0.09722        4.25877
C          3.29716       -0.12543        3.02286
H          3.31888       -1.01253        2.40920
H          4.44036       -0.96684        4.62113
C          4.52118        1.07047        6.38667
H          3.12790        3.04044        5.18352
H          2.01853        2.97495        2.97206
H          1.11889       -0.83085       -0.25941
H          0.29769       -0.95749       -2.91110
C         -0.63887        1.43233       -2.63452
C         -1.74548        1.95445       -3.25998
C         -1.58581        2.87133       -4.28238
C         -0.31775        3.27487       -4.67983
C          0.78728        2.72888       -4.04129
C          0.62499        1.81179       -3.01921
H          1.48115        1.40282       -2.50746
H          1.77579        3.02967       -4.34352
C         -0.14554        4.24750       -5.79414
H         -2.44875        3.28357       -4.77683
H         -2.72894        1.65224       -2.93993
C         -2.49190       -0.21407       -1.15217
C         -3.01468       -0.99468       -2.15566
C         -4.35692       -1.33117       -2.13946
C         -5.18243       -0.88768       -1.11563
C         -4.63553       -0.10028       -0.11144
C         -3.29314        0.22908       -0.12745
H         -2.86782        0.83761        0.65378
H         -5.26917        0.25922        0.68111
C         -6.63274       -1.22559       -1.11426
H         -4.77214       -1.93732       -2.92632
H         -2.36875       -1.33460       -2.95007
Cl        -2.09380        2.93647       -0.19354
H          0.22441       -7.22904       -1.04054
H         -1.02330       -6.53635        1.35829
H          0.96701       -8.05918        1.09358
H         -0.67878       -4.18821        2.08565
H         -4.76047       -4.41105        0.90934
H         -2.88658       -3.11653       -0.42541
H         -3.70805       -1.77214        4.16873
H         -3.77507       -4.03118        3.19477
H          6.34785        2.37649       -3.50447
H          5.08523        1.79041       -4.59001
H          5.07605        3.46838       -4.05606
H          3.82304        0.74340        7.15838
H          5.39002        0.41151        6.41734
H          4.85951        2.07547        6.64273
H         -0.97751        4.95198       -5.83338
H          0.77152        4.82588       -5.67352
H         -0.09484        3.73195       -6.75413
H         -7.05511       -1.15347       -0.11097
H         -7.18865       -0.54662       -1.76217
H         -6.79858       -2.24324       -1.47082
