59
-75.79841111
Cl         1.56405        0.98514        2.35651
P          1.66555        0.05866       -0.80363
P         -1.47561       -0.23066       -0.79040
C          0.69587        0.36852       -2.34287
H          0.39825        1.42010       -2.35543
H          1.34192        0.19507       -3.20899
C         -0.50933       -0.53058       -2.33706
H         -0.20605       -1.58090       -2.34624
H         -1.15994       -0.36755       -3.20201
C          2.47224       -1.60421       -0.90272
H          2.26485       -1.99319       -1.90684
C          3.16611        1.12384       -0.61802
H          3.26190        1.32909        0.45533
C         -2.59621       -1.61915       -0.29409
H         -2.41712       -1.78707        0.77503
C         -2.71562        1.12368       -1.01116
H         -2.82647        1.27310       -2.09203
C          3.97284       -1.29311       -0.73908
H          4.26403       -1.49642        0.30045
H          4.57708       -1.97780       -1.35307
C          4.29714        0.18837       -1.07963
H          4.42699        0.29845       -2.16533
H          5.25544        0.49583       -0.63333
C         -4.00188       -1.03142       -0.51558
H         -4.35846       -1.33163       -1.51048
H         -4.71658       -1.46800        0.19857
C         -3.99929        0.51933       -0.41489
H         -4.07046        0.81519        0.64094
H         -4.88861        0.94625       -0.90313
C          1.90279       -2.53799        0.15826
H          0.80721       -2.55135        0.07613
H          2.10923       -2.11273        1.14988
C          3.06043        2.43368       -1.38839
H          4.04785        2.91524       -1.41775
H          2.81604        2.21216       -2.43535
C         -2.31479       -2.89490       -1.07880
H         -2.46620       -2.69363       -2.14756
H         -1.25181       -3.15319       -0.98007
C         -2.25542        2.41330       -0.34348
H         -2.12139        2.22794        0.73044
H         -1.25651        2.67434       -0.71780
C          2.45068       -3.95399        0.06348
H          2.22930       -4.39710       -0.90934
H          2.02639       -4.60920        0.82768
H          3.53529       -3.96896        0.18442
C          2.03548        3.38440       -0.78841
H          1.04820        2.92429       -0.74109
H          1.94255        4.30761       -1.36476
H          2.30416        3.65916        0.23339
C         -3.17656       -4.06747       -0.63459
H         -3.02214       -4.29054        0.42283
H         -2.95455       -4.97645       -1.19839
H         -4.23852       -3.85230       -0.76569
C         -3.21472        3.57369       -0.56088
H         -2.86215        4.49112       -0.08406
H         -3.34380        3.78409       -1.62424
H         -4.20313        3.35276       -0.15408
Cl        -1.61225        0.22390        2.33919
Pd         0.07832        0.23233        0.85954
