111
-148.55454427
P         -2.52729        2.09108        0.97125
P          0.10445        0.38880        0.51954
C         -1.43104        1.74085        2.37189
C         -0.26685        1.03430        2.16121
C         -3.26988        3.78269        1.08288
C         -2.64725        4.72456        0.07554
C         -1.75809        2.16434        3.64413
H         -2.67953        2.69877        3.80765
C         -0.90922        1.88604        4.70167
H         -1.16346        2.21643        5.69558
C          0.26112        1.18371        4.48593
H          0.92065        0.96561        5.30970
C          0.58154        0.75238        3.21114
H          1.48318        0.18935        3.02644
Pd        -1.33853        1.50082       -0.91421
Cl        -3.01356        2.30113       -2.16682
Cl         0.06230        0.89537       -2.56741
C         -4.77154        3.51374        0.87010
C         -4.06101        1.05681        0.96170
H         -2.80038        4.36062       -0.94145
H         -3.08646        5.72298        0.13764
H         -1.56970        4.81676        0.23149
H         -5.00509        3.64583       -0.19536
H         -5.37548        4.26564        1.40046
H         -4.18169        0.70212       -0.07076
C         -5.16388        2.07379        1.30912
C         -3.94699       -0.10865        1.92003
H         -3.08647        4.13654        2.10535
H         -5.33351        2.05472        2.39451
H         -6.12008        1.77141        0.85557
H         -3.76121        0.24202        2.93691
H         -4.86227       -0.70490        1.93554
H         -3.11989       -0.76593        1.64346
C         -1.15957       -3.96776        0.11864
C         -1.13524       -3.36790        1.40445
C         -0.73821       -2.04481        1.50445
C         -0.45219       -1.30866        0.38503
C         -0.58461       -1.85256       -0.86455
C         -0.97080       -3.16919       -1.03785
O         -1.33156       -5.37189       -0.00773
C         -1.49254       -4.14126        2.68341
H         -0.63368       -1.57238        2.46498
H         -0.36460       -1.22443       -1.71005
C         -1.13772       -3.71098       -2.46544
C          4.45499        0.76886       -0.76460
C          3.83469       -0.50587       -0.73148
C          2.51081       -0.57771       -0.33474
C          1.83174        0.53733        0.08090
C          2.45427        1.75581        0.14448
C          3.78007        1.89848       -0.23338
O          5.73443        0.91930       -1.36268
C          4.55184       -1.79542       -1.16066
H          1.98152       -1.51370       -0.36446
H          1.88079        2.60196        0.48227
C          4.44990        3.27520       -0.10049
C         -2.07431       -3.19074        3.75461
C         -2.56553       -5.20921        2.40347
C         -0.22505       -4.79926        3.24921
C         -1.60787       -2.58900       -3.42019
C          0.21344       -4.24551       -2.96461
C         -2.20317       -4.82051       -2.51896
C         -0.11345       -6.10603        0.00042
H         -2.91530       -2.62492        3.35551
H         -2.43101       -3.75336        4.61707
H         -1.32823       -2.48653        4.11957
H         -2.86641       -5.71275        3.32183
H         -3.45105       -4.75588        1.95919
H         -2.19979       -5.96878        1.71701
H          0.20800       -5.49758        2.53709
H          0.53016       -4.04741        3.47734
H         -0.44485       -5.34630        4.16567
H         -0.83582       -1.83610       -3.57102
H         -1.85457       -2.99370       -4.40137
H         -2.49630       -2.09393       -3.02907
H          0.96377       -3.45525       -2.96298
H          0.57897       -5.04914       -2.32968
H          0.13026       -4.62975       -3.98086
H         -3.15317       -4.45874       -2.12704
H         -2.36500       -5.15944       -3.54190
H         -1.90717       -5.68444       -1.92940
H          0.73589       -5.43349        0.12759
H         -0.12912       -6.83001        0.81497
H         -0.00752       -6.65126       -0.93725
C          5.69218        1.20864       -2.75449
C          3.97749       -3.01765       -0.40683
C          4.34536       -2.01241       -2.66749
C          6.05410       -1.73001       -0.83197
C          5.95683        3.13624        0.18258
C          4.22410        4.07570       -1.39216
C          3.84281        4.06523        1.08133
H          3.98551       -2.84838        0.66961
H          2.95547       -3.23772       -0.71225
H          4.56934       -3.90998       -0.60947
H          4.82465       -2.93316       -2.99907
H          3.28379       -2.07941       -2.90434
H          4.76059       -1.19046       -3.24531
H          6.20636       -1.53784        0.22957
H          6.55118       -2.66695       -1.08202
H          6.54807       -0.93718       -1.38799
H          6.47453        2.65897       -0.64556
H          6.41743        4.11115        0.34037
H          6.12563        2.53295        1.07392
H          3.15910        4.20331       -1.58469
H          4.67615        5.06479       -1.32309
H          4.65574        3.56826       -2.25137
H          3.87079        3.47516        1.99704
H          2.80986        4.35056        0.88802
H          4.40004        4.98485        1.25860
H          6.18482        2.16183       -2.94548
H          6.22576        0.43441       -3.30553
H          4.65905        1.25653       -3.10124
