111
-148.55298637
P         -2.66661        2.13428        0.54894
P          0.03357        0.50370        0.41717
C         -1.61685        2.01467        2.02418
C         -0.41061        1.35421        1.94072
C         -3.52506        3.77469        0.47844
C         -2.86300        4.73216       -0.48797
C         -2.01110        2.57286        3.22385
H         -2.96541        3.06781        3.29494
C         -1.18758        2.47710        4.33250
H         -1.49515        2.91301        5.26899
C          0.02596        1.82268        4.24177
H          0.66577        1.74667        5.10550
C          0.41380        1.25431        3.04185
H          1.34805        0.72134        2.95705
Pd        -1.40627        1.30040       -1.20775
Cl        -2.77308        2.36419       -2.62811
Cl        -0.07352        0.41060       -2.78440
C         -4.96973        3.38081        0.12279
C         -4.13209        1.00192        0.57725
H         -3.37122        5.69903       -0.50262
H         -1.81678        4.90212       -0.22332
H         -2.88322        4.33782       -1.50376
H         -5.07566        3.37949       -0.97090
H         -5.67708        4.14067        0.48875
H         -4.14022        0.49087       -0.39486
C         -5.32447        1.97225        0.68041
C         -4.02925        0.00211        1.70865
H         -3.48946        4.18287        1.49631
H         -5.61776        2.06061        1.73545
H         -6.20294        1.55595        0.16455
H         -4.90342       -0.65210        1.74520
H         -3.14186       -0.62551        1.60140
H         -3.95501        0.51223        2.67087
C         -0.94255       -3.93442        0.73961
C         -0.97981       -3.12582        1.90468
C         -0.67639       -1.78070        1.77965
C         -0.42098       -1.22495        0.55369
C         -0.48993       -1.98117       -0.58542
C         -0.78732       -3.33124       -0.53446
O         -1.01760       -5.34813        0.85303
C         -1.29923       -3.69273        3.29656
H         -0.61999       -1.14809        2.64739
H         -0.29367       -1.49310       -1.52370
C         -0.89599       -4.11739       -1.84976
C          4.42958        0.73206       -0.72887
C          3.59369        1.85756       -0.94862
C          2.25803        1.76498       -0.59183
C          1.77022        0.64090        0.01998
C          2.59650       -0.40722        0.33072
C          3.94163       -0.37956        0.00453
O          5.73936        0.70082       -1.27720
C          4.10059        3.14810       -1.61094
H          1.57086        2.56451       -0.80923
H          2.16660       -1.26616        0.81684
C          4.82665       -1.56929        0.40763
C          0.00458       -4.14846        3.96922
C         -1.96335       -2.61686        4.18623
C         -2.28832       -4.86866        3.20311
C         -1.42767       -3.20896       -2.98251
C          0.49551       -4.63377       -2.24648
C         -1.88252       -5.29160       -1.71771
C          0.24696       -5.98374        0.99381
H          0.49678       -4.92534        3.38906
H          0.70050       -3.31517        4.06465
H         -0.18780       -4.54395        4.96623
H         -1.27276       -1.81142        4.43154
H         -2.83213       -2.18547        3.69007
H         -2.29803       -3.04841        5.12928
H         -3.19910       -4.56375        2.68877
H         -1.86038       -5.70480        2.65577
H         -2.56268       -5.22967        4.19402
H         -0.70735       -2.43966       -3.25617
H         -1.63082       -3.79003       -3.88165
H         -2.35413       -2.71915       -2.68394
H          1.19160       -3.80484       -2.37347
H          0.90331       -5.29367       -1.48435
H          0.45415       -5.18675       -3.18449
H         -2.86085       -4.93601       -1.39617
H         -2.00525       -5.80914       -2.66879
H         -1.53733       -6.02070       -0.98913
H          0.40572       -6.67242        0.16420
H          1.04665       -5.24201        1.00817
H          0.26621       -6.55711        1.92052
C          5.80538        0.14392       -2.58424
C          3.30005        4.37085       -1.10768
C          5.57820        3.40802       -1.26579
C          3.92161        3.03909       -3.13296
C          4.31532       -2.20856        1.71960
C          4.78369       -2.63153       -0.70167
C          6.27737       -1.12243        0.66261
H          3.29609        4.41005       -0.01870
H          3.73947        5.29828       -1.47429
H          2.26814        4.34810       -1.45477
H          5.91739        4.35553       -1.68373
H          5.71938        3.44346       -0.18609
H          6.22195        2.62602       -1.66040
H          2.87387        2.87897       -3.38649
H          4.25533        3.94847       -3.63198
H          4.48984        2.20544       -3.53821
H          5.01299       -2.96472        2.07891
H          4.20599       -1.45626        2.50036
H          3.35427       -2.70202        1.58137
H          5.15392       -2.23380       -1.64349
H          5.39242       -3.49614       -0.43837
H          3.76250       -2.97505       -0.86623
H          6.73669       -0.72930       -0.24074
H          6.88923       -1.95558        1.00753
H          6.31010       -0.34073        1.42081
H          6.22541        0.87661       -3.27315
H          6.45705       -0.72959       -2.57811
H          4.81046       -0.14674       -2.92408
