87
-129.18277225
P         -1.53429       -0.27031       -0.42220
P          1.72060        0.29890        0.24970
C         -1.08654        0.97237       -1.63921
C          1.52391       -0.80649       -1.17188
C          0.01540        0.73597       -2.45087
C          0.37158        1.70217       -3.41269
C         -0.39929        2.84739       -3.53145
C         -1.49433        3.05860       -2.71889
C         -1.83593        2.11555       -1.76953
C          2.14419       -2.02350       -1.01055
C          2.03954       -2.99781       -1.98439
C          1.29479       -2.75002       -3.11635
C          0.64366       -1.54116       -3.29217
C          0.76436       -0.54004       -2.30909
Cl         0.96298       -0.24480        3.36476
Cl        -1.70233       -1.84307        2.37840
H         -2.07896        3.95811       -2.82090
H         -2.69178        2.26770       -1.13325
H          2.70764       -2.21266       -0.10881
H          2.52934       -3.94876       -1.85372
H         -0.12694        3.58411       -4.26803
H          1.19880       -3.50951       -3.87370
C         -2.46440       -4.17881       -2.54353
C         -1.63895       -4.19624       -1.42758
C         -1.38618       -2.99806       -0.77148
C         -1.92031       -1.82023       -1.23879
C         -2.73230       -1.80943       -2.34857
C         -3.00999       -2.99578       -3.00216
H         -2.67781       -5.10367       -3.05178
C         -1.06177       -5.46948       -0.91807
H         -0.76782       -2.99088        0.10988
H         -3.13634       -0.87340       -2.70138
H         -3.64658       -2.99525       -3.87171
C         -5.17226        1.11190        1.95055
C         -5.24119       -0.03807        1.18989
C         -4.13940       -0.45145        0.46560
C         -2.98097        0.28880        0.50086
C         -2.90997        1.43373        1.25993
C         -4.00419        1.86010        2.00240
H         -6.02915        1.43587        2.51627
H         -6.15039       -0.61613        1.16467
H         -4.17557       -1.35473       -0.12105
H         -1.99862        2.00528        1.27528
C         -3.92407        3.10306        2.81678
C          6.08374       -0.01741        1.52276
C          5.75266        0.16736        0.19489
C          4.42453        0.26203       -0.17844
C          3.43860        0.16662        0.77670
C          3.76960       -0.01601        2.09777
C          5.09698       -0.10419        2.49456
H          7.11674       -0.09761        1.81578
H          6.52779        0.23550       -0.55074
H          4.15070        0.39877       -1.21286
H          2.98625       -0.09657        2.82954
C          5.44753       -0.33026        3.92334
C          0.79987        4.71817       -0.29022
C          1.67319        4.09228       -1.15750
C          1.96233        2.75048       -0.99497
C          1.36660        2.04530        0.02353
C          0.52663        2.67539        0.91320
C          0.22529        4.02392        0.76522
H          0.56333        5.76035       -0.42143
H          2.12201        4.64570       -1.96599
H          2.63834        2.24555       -1.66569
H          0.13679        2.12561        1.75300
C         -0.71057        4.70496        1.69986
Pd        -0.13235       -0.54599        1.43676
C          1.55740        1.52137       -4.29469
C         -0.18092       -1.33709       -4.51601
H          2.19414        0.70738       -3.94612
H          1.25092        1.29611       -5.31692
H          2.16530        2.42697       -4.31913
H          0.45026       -1.12121       -5.37883
H         -0.76555       -2.22960       -4.74343
H         -0.88162       -0.51060       -4.39375
H         -0.07490       -5.30468       -0.48288
H         -1.70105       -5.90321       -0.14794
H         -0.95228       -6.20208       -1.71894
H         -2.98962        3.14044        3.37832
H         -3.97420        3.98784        2.18073
H         -4.74284        3.16004        3.53533
H          5.53598       -1.39651        4.13603
H          6.39667        0.14454        4.17594
H          4.68429        0.08195        4.58500
H         -0.37412        5.71867        1.92182
H         -1.70973        4.76896        1.26695
H         -0.78439        4.16686        2.64583
