111
-148.55450704
P         -2.54334        2.05299        0.80389
P          0.12963        0.39807        0.50659
C         -1.49557        1.77174        2.25792
C         -0.30477        1.09400        2.11131
C         -3.35977        3.71359        0.86587
C         -2.68747        4.70666       -0.05671
C         -1.87953        2.22406        3.50431
H         -2.82143        2.73438        3.62010
C         -1.06105        2.00478        4.59899
H         -1.35995        2.35832        5.57230
C          0.13610        1.33181        4.44690
H          0.77190        1.15939        5.29967
C          0.51321        0.86972        3.19885
H          1.43548        0.32616        3.06483
Pd        -1.26277        1.43837       -1.01930
Cl        -2.82435        2.38729       -2.32036
Cl         0.03812        0.72014       -2.70461
C         -4.82138        3.38412        0.51144
C         -4.03241        0.95605        0.72783
H         -3.17193        5.68477       -0.01148
H         -1.63373        4.83686        0.20098
H         -2.73089        4.36734       -1.09206
H         -4.95194        3.48660       -0.57475
H         -5.50222        4.12193        0.96272
H         -4.05906        0.55077       -0.29264
C         -5.19953        1.93813        0.94387
C         -3.94692       -0.15949        1.74687
H         -3.29150        4.05419        1.90671
H         -5.47219        1.93437        2.00816
H         -6.09625        1.59050        0.40878
H         -3.85209        0.24456        2.75650
H         -4.83741       -0.79190        1.72345
H         -3.07723       -0.79432        1.56493
C         -1.23095       -3.94520        0.25823
C         -1.12032       -3.31766        1.52587
C         -0.68244       -2.00465        1.57294
C         -0.43482       -1.30158        0.42342
C         -0.64873       -1.87070       -0.80375
C         -1.08250       -3.17808       -0.92494
O         -1.45205       -5.34575        0.17633
C         -1.44187       -4.04927        2.83837
H         -0.52469       -1.51100        2.51537
H         -0.46303       -1.26953       -1.67617
C         -1.35867       -3.74065       -2.32771
C          4.51328        0.79333       -0.65629
C          3.81202       -0.40839       -0.92983
C          2.48045       -0.48586       -0.56037
C          1.86823        0.53877        0.11226
C          2.56841        1.66151        0.46850
C          3.90705        1.80086        0.13811
O          5.80272        1.00606       -1.21220
C          4.44883       -1.60171       -1.65871
H          1.89264       -1.35023       -0.81392
H          2.04760        2.43708        1.00329
C          4.66910        3.04753        0.61439
C         -1.92173       -3.05300        3.91862
C         -2.57500       -5.07165        2.63622
C         -0.17737       -4.75494        3.35053
C         -0.05919       -4.32085       -2.90637
C         -2.45406       -4.82136       -2.28845
C         -1.86340       -2.62334       -3.27033
C         -0.25791       -6.11638        0.12550
H         -2.75220       -2.45136        3.55078
H         -2.26214       -3.58240        4.80826
H         -1.12374       -2.38184        4.23269
H         -2.84925       -5.54454        3.57890
H         -3.46154       -4.58618        2.22945
H         -2.27986       -5.85907        1.94696
H          0.18368       -5.48683        2.63208
H          0.62286       -4.03525        3.52164
H         -0.37241       -5.27306        4.28915
H          0.70587       -3.54870       -2.98351
H          0.33406       -5.11442       -2.27520
H         -0.22435       -4.73175       -3.90198
H         -2.69528       -5.17168       -3.29171
H         -2.14073       -5.68378       -1.70571
H         -3.36480       -4.42763       -1.83840
H         -2.18565       -3.03841       -4.22490
H         -2.71072       -2.09814       -2.83031
H         -1.08462       -1.89382       -3.48695
H         -0.21694       -6.66901       -0.81288
H          0.61662       -5.46916        0.20415
H         -0.25336       -6.83539        0.94463
C          5.78257        1.62612       -2.49194
C          4.20987       -1.45466       -3.16922
C          5.95672       -1.69619       -1.36436
C          3.81461       -2.93042       -1.18573
C          6.15848        2.73372        0.84629
C          4.52021        4.16450       -0.42955
C          4.10142        3.55055        1.96131
H          3.14281       -1.41867       -3.38804
H          4.65555       -0.53914       -3.55107
H          4.63941       -2.29318       -3.71671
H          6.49064       -0.82818       -1.74252
H          6.13494       -1.75603       -0.29123
H          6.39242       -2.57954       -1.83059
H          3.85339       -3.01342       -0.09992
H          2.77536       -3.01724       -1.49851
H          4.34612       -3.78389       -1.60605
H          6.68364        3.59991        1.24804
H          6.27200        1.91096        1.55138
H          6.65314        2.45011       -0.07932
H          4.92967        3.86272       -1.39060
H          3.47005        4.41336       -0.58041
H          5.03934        5.06821       -0.11134
H          3.09281        3.94615        1.85214
H          4.71752        4.35374        2.36496
H          4.07689        2.74609        2.69601
H          6.24491        0.96695       -3.22642
H          4.75662        1.84223       -2.79290
H          6.35476        2.55312       -2.45794
