72
-108.39219294
Cl        -2.06480       -0.12499        2.80459
Cl         1.01365       -0.57800        2.82854
P          1.15771       -1.02962       -0.29221
P         -2.19049        0.16366       -0.41208
C         -3.36329       -1.33655       -0.36812
C         -4.25662       -1.25550        0.86759
C         -4.24006       -1.40804       -1.62796
C         -3.10942        1.80244       -0.08794
C         -4.42665        1.83297       -0.85731
C         -1.38739        0.45857       -2.09077
C         -1.36040       -0.73046       -3.03177
C          1.17901        0.29409       -1.53246
C          0.01064        1.05330       -1.98595
C          0.50726        2.12809       -2.85045
C          1.95395        2.03366       -2.89322
C          2.36794        0.86964       -2.13312
C         -2.51164       -2.59753       -0.26808
H         -3.66438       -1.19125        1.77821
H         -4.93020       -0.40244        0.83087
H         -4.49248       -0.42215       -2.01187
H         -5.17447       -1.93188       -1.41915
C         -3.35804        1.98490        1.40369
H         -4.25865        1.71238       -1.92777
H         -4.92973        2.79051       -0.71356
H         -2.03291        1.21918       -2.54463
H         -0.84560       -1.57283       -2.57830
H         -0.81458       -0.48584       -3.94532
H         -2.35481       -1.04918       -3.33549
H         -0.10983        2.82196       -3.42476
H          2.61609        2.67965       -3.47372
Pd        -0.53158       -0.39962        1.19113
H          3.38956        0.52763       -1.95683
C         -2.23078        2.95000       -0.58356
H         -5.11299        1.05669       -0.52589
H         -3.88617        2.91957        1.59848
H         -3.95744        1.17691        1.81811
H         -2.41644        2.01903        1.95148
H         -2.20326        3.00682       -1.67148
H         -2.60196        3.91081       -0.22248
H         -1.21240        2.82750       -0.23019
H         -4.87663       -2.14967        0.95050
H         -3.75120       -1.96760       -2.42398
H         -1.82864       -2.68200       -1.11095
H         -1.92509       -2.60827        0.65070
H         -3.14058       -3.48941       -0.26421
C          2.82485       -1.14221        0.40331
C          3.24418       -2.13041        1.25857
C          4.57591       -1.86075        1.57423
C          4.91604       -0.71744        0.89412
O          3.85043       -0.26639        0.17000
H          2.64722       -2.94895        1.62590
H          5.21185       -2.43563        2.22745
H          5.88306       -0.23044        0.91906
C          0.73236       -2.64962       -0.95307
C          0.51331       -3.74095       -0.14945
C          0.21146       -4.81325       -0.99041
C          0.25934       -4.32937       -2.27491
O          0.57460       -3.00037       -2.26612
H          0.55457       -3.75367        0.92816
H         -0.01506       -5.82317       -0.68994
H          0.07461       -4.90353       -3.17436
Fe         1.27417        2.16495       -0.94917
C          2.35364        3.82453       -0.39971
C          2.95228        2.61739        0.14006
C          1.96669        1.96754        0.97833
C          0.77140        2.78205        0.98651
C          1.00365        3.92534        0.12313
H          2.84418        4.54616       -1.05694
H          3.96690        2.25697       -0.04407
H          2.11270        1.05263        1.55437
H         -0.10875        2.60047        1.60610
H          0.30861        4.74849       -0.05631
