171
-217.84474883
P         -1.61118        0.37557       -0.40518
P          1.59823       -0.41539       -0.31855
C         -0.88303        1.27591       -1.77255
C          0.90092       -1.42690       -1.62861
C         -0.08252        0.61505       -2.69678
C          0.53971        1.36773       -3.71151
C          0.30675        2.73126       -3.78225
C         -0.51510        3.36147       -2.87170
C         -1.10232        2.62849       -1.85898
C          1.11559       -2.78315       -1.58199
C          0.53363       -3.61271       -2.51970
C         -0.28002       -3.07392       -3.49332
C         -0.51063       -1.70956       -3.55707
C          0.10867       -0.86002       -2.62064
Cl         1.52673        0.37559        2.85116
Cl        -1.65676       -0.43068        2.80972
C         -1.39550       -1.16576       -4.62283
C          1.43343        0.72604       -4.71454
H         -0.69490        4.42148       -2.94640
H         -1.73546        3.11196       -1.13224
H          1.74197       -3.19715       -0.80881
H          0.70949       -4.67548       -2.48475
H          0.77958        3.30104       -4.56439
H         -0.74841       -3.71733       -4.21897
C         -4.02008       -3.24940       -1.63058
C         -2.95893       -3.41175       -0.74857
C         -2.23006       -2.28373       -0.39445
C         -2.54235       -1.05948       -0.92994
C         -3.58226       -0.91766       -1.81569
C         -4.35873       -2.01400       -2.17100
H         -4.60323       -4.11320       -1.88823
H         -1.41498       -2.34866        0.30528
H         -3.79756        0.05833       -2.21804
C         -4.16734        2.95357        2.32504
C         -2.80616        3.21932        2.23098
C         -2.05343        2.45478        1.34942
C         -2.63785        1.45282        0.61413
C         -3.98247        1.20041        0.72626
C         -4.77718        1.94671        1.58589
H         -4.76427        3.53598        2.99984
H         -0.99302        2.62054        1.26101
H         -4.41374        0.39890        0.15305
C          4.42726       -2.78239        2.32569
C          3.07830       -3.11745        2.32165
C          2.23558       -2.40486        1.47953
C          2.72293       -1.38525        0.70021
C          4.05570       -1.05816        0.72830
C          4.93990       -1.75909        1.53797
H          5.10130       -3.32137        2.96443
H          1.18387       -2.63417        1.44515
H          4.39895       -0.23956        0.12173
C          3.82181        3.29267       -1.63880
C          2.83913        3.41199       -0.66350
C          2.13931        2.26668       -0.30753
C          2.43101        1.06091       -0.89485
C          3.41127        0.95688       -1.85095
C          4.13064        2.08003       -2.24293
H          4.37787        4.16325       -1.93105
H          1.36857        2.30765        0.44247
H          3.61716       -0.01133       -2.27489
Pd        -0.04856       -0.05010        1.29439
C         -3.83132       -5.24823        0.71212
C         -2.64975       -4.79666       -0.16433
C         -1.37601       -4.77201        0.70244
C         -2.43620       -5.80329       -1.31030
H         -4.00320       -4.53775        1.52054
H         -4.74922       -5.32020        0.12962
H         -3.63799       -6.22491        1.15541
H         -0.51829       -4.43569        0.12106
H         -1.49522       -4.10928        1.55927
H         -1.14935       -5.76677        1.08570
H         -2.17445       -6.78706       -0.92107
H         -3.33470       -5.91483       -1.91571
H         -1.63048       -5.47461       -1.96560
C         -6.50142       -0.75294       -2.50306
C         -5.56762       -1.82260       -3.10005
C         -6.37135       -3.12687       -3.26684
C         -5.08458       -1.36575       -4.48720
H         -7.39502       -0.62901       -3.11455
H         -6.81632       -1.03397       -1.49822
H         -6.00495        0.21453       -2.44395
H         -5.76361       -3.90789       -3.72333
H         -6.73566       -3.48794       -2.30516
H         -7.23720       -2.96764       -3.90947
H         -5.92798       -1.18951       -5.15465
H         -4.51214       -0.44119       -4.42094
H         -4.45127       -2.12587       -4.94296
C         -1.02459        3.57631        3.95341
C         -2.10317        4.27188        3.09999
C         -3.08788        4.98615        4.04532
C         -1.44729        5.32590        2.19181
H         -1.47141        2.81118        4.58775
H         -0.27524        3.09070        3.32992
H         -0.51131        4.29200        4.59513
H         -3.56613        4.27777        4.72149
H         -2.56954        5.72549        4.65581
H         -3.86288        5.50761        3.48387
H         -0.70747        4.86969        1.53795
H         -2.19302        5.81388        1.56453
H         -0.94453        6.09279        2.78081
C         -6.46408        0.13156        1.99724
C         -6.27617        1.63075        1.69146
C         -6.95567        1.97671        0.35533
C         -6.95350        2.44074        2.81377
H         -5.94401       -0.14094        2.91533
H         -7.51913       -0.11179        2.12124
H         -6.07407       -0.49289        1.19458
H         -6.83859        3.03571        0.12609
H         -6.51776        1.40889       -0.46384
H         -8.02173        1.75259        0.38815
H         -6.48612        2.23954        3.77758
H         -6.89626        3.51110        2.61717
H         -8.00842        2.17928        2.89624
C          3.53022       -4.75722        4.21534
C          2.49645       -4.23399        3.19960
C          2.05487       -5.39914        2.29771
C          1.28331       -3.69191        3.98236
H          4.38339       -5.21128        3.71193
H          3.89281       -3.95125        4.85316
H          3.08852       -5.51737        4.85960
H          2.90400       -5.80392        1.74736
H          1.61581       -6.20520        2.88529
H          1.31457       -5.07040        1.57027
H          0.47817       -3.38784        3.31520
H          0.88361       -4.44933        4.65623
H          1.56706       -2.82461        4.57803
C          6.78870       -0.95328        3.02389
C          6.43491       -1.41535        1.59889
C          6.79804       -0.28664        0.61324
C          7.26214       -2.66194        1.23417
H          6.59379       -1.73831        3.75364
H          7.84197       -0.68289        3.09677
H          6.19560       -0.08269        3.30336
H          6.26005        0.63106        0.85047
H          7.86389       -0.06301        0.65597
H          6.56117       -0.57199       -0.41159
H          8.32888       -2.43874        1.24514
H          7.08590       -3.47557        1.93664
H          7.00204       -3.01768        0.23735
C          2.37603        4.56771        1.52570
C          2.49663        4.75366       -0.00038
C          1.16198        5.25860       -0.57063
C          3.58354        5.81350       -0.26694
H          1.56557        3.88932        1.78555
H          3.29854        4.15898        1.93731
H          2.17827        5.51878        2.01982
H          0.86111        6.19418       -0.09959
H          1.24445        5.43109       -1.64343
H          0.37172        4.52646       -0.41194
H          3.64883        6.05605       -1.32722
H          3.35974        6.73836        0.26465
H          4.55962        5.46381        0.06909
C          5.41926        0.59380       -3.85846
C          5.27907        2.00699       -3.25965
C          6.59799        2.36911       -2.55210
C          5.02127        3.00204       -4.40708
H          4.50344        0.28701       -4.36239
H          6.22576        0.56260       -4.59091
H          5.64976       -0.13915       -3.08556
H          6.79271        1.68534       -1.72649
H          7.43963        2.31343       -3.24227
H          6.56402        3.37987       -2.14695
H          5.81059        2.94438       -5.15642
H          4.07381        2.79008       -4.90031
H          4.98515        4.02811       -4.04347
H         -2.19937       -1.86543       -4.85258
H          2.32697        1.32834       -4.87795
H         -0.83658       -0.98830       -5.54234
H         -1.85276       -0.22403       -4.31590
H          0.92693        0.61545       -5.67425
H          1.75853       -0.26218       -4.38652
