59
-75.80978037
Cl         1.64577        0.48593        2.34945
P          1.58103       -0.10260       -0.90090
P         -1.59601       -0.04901       -0.79629
C          0.57255        0.20656       -2.41498
H          0.34059        1.27228       -2.48079
H          1.16466       -0.05643       -3.29733
C         -0.68324       -0.60632       -2.30019
H         -0.44845       -1.66843       -2.18811
H         -1.33527       -0.49874       -3.17283
C          2.61836       -1.61456       -1.21189
H          2.49794       -1.80004       -2.28793
C          2.93777        1.13884       -0.65354
H          2.99956        1.30344        0.42911
C         -3.02308       -1.16594       -0.41103
H         -3.22921       -1.00444        0.65460
C         -2.60404        1.44726       -1.23270
H         -2.02662        2.05286       -1.94190
C          4.05585       -1.13682       -0.94165
H          4.33769       -1.38811        0.08794
H          4.76697       -1.68261       -1.58006
C          4.19120        0.39535       -1.14557
H          4.33585        0.61315       -2.21274
H          5.08931        0.78273       -0.64069
C         -4.17216       -0.59746       -1.27288
H         -4.41944       -1.32057       -2.06283
H         -5.08526       -0.51732       -0.66463
C         -3.82653        0.78714       -1.90568
H         -4.69275        1.46339       -1.85210
H         -3.62450        0.65969       -2.98038
C          2.18279       -2.85451       -0.43130
H          2.77568       -3.71462       -0.77237
H          1.14875       -3.09527       -0.70983
C          2.68072        2.46325       -1.36186
H          3.59555        3.07126       -1.32804
H          2.50486        2.26859       -2.42769
C         -2.71714       -2.63805       -0.65478
H         -3.64769       -3.21734       -0.57557
H         -2.38681       -2.76673       -1.69335
C         -2.98558        2.27665       -0.00701
H         -3.82423        2.93576       -0.27168
H         -3.38326        1.60119        0.76172
C          2.29394       -2.73653        1.08214
H          1.76867       -1.85917        1.45624
H          3.33078       -2.64994        1.40952
H          1.87205       -3.60704        1.59002
C          1.52031        3.23929       -0.76084
H          1.70432        3.47391        0.28935
H          0.59781        2.66018       -0.80012
H          1.33995        4.18158       -1.28314
C         -1.68028       -3.18910        0.31090
H         -0.75352       -2.61808        0.25932
H         -1.43786       -4.23413        0.10518
H         -2.03060       -3.12821        1.34305
C         -1.84828        3.11045        0.56098
H         -2.16905        3.70730        1.41781
H         -1.02285        2.48532        0.89955
H         -1.45224        3.79967       -0.18699
Cl        -1.59000        0.04151        2.37397
Pd         0.04830        0.05847        0.83846
