111
-148.55638596
P         -2.76034        1.79165       -0.38685
P          0.12349        0.62925        0.16357
C         -1.87330        2.26979        1.12096
C         -0.59006        1.81037        1.32503
C         -3.76855        3.19463       -1.05195
C         -3.09842        3.86003       -2.23413
C         -2.46922        3.08655        2.06078
H         -3.47950        3.42828        1.90691
C         -1.77187        3.44760        3.20080
H         -2.23629        4.08547        3.93501
C         -0.48336        2.99020        3.40005
H          0.05825        3.26900        4.28895
C          0.10753        2.16416        2.46122
H          1.10527        1.78317        2.61093
Pd        -1.18718        0.78058       -1.74585
Cl        -2.72665        0.84299       -3.37612
Cl         0.42754       -0.23612       -2.92665
C         -5.11699        2.52076       -1.36456
C         -4.08744        0.52639       -0.12566
H         -3.69828        4.68808       -2.61877
H         -2.11417        4.25000       -1.96422
H         -2.95635        3.15147       -3.05075
H         -5.10451        2.17546       -2.40761
H         -5.93617        3.25355       -1.30466
H         -3.92470       -0.24441       -0.89101
C         -5.37995        1.31107       -0.42219
C         -4.02059       -0.07301        1.26234
H         -3.88616        3.90982       -0.22805
H         -5.79929        1.67222        0.52691
H         -6.14450        0.64261       -0.84629
H         -4.11156        0.70298        2.02455
H         -4.82362       -0.79561        1.42499
H         -3.07023       -0.58388        1.42681
C         -1.24067       -3.52490        1.43809
C         -0.78840       -3.30508        0.11001
C         -0.38049       -2.02964       -0.23667
C         -0.34612       -1.01883        0.68627
C         -0.65215       -1.25885        1.99979
C         -1.06161       -2.51334        2.41951
O         -1.94754       -4.71180        1.76027
C         -0.72725       -4.39448       -0.97273
H         -0.10022       -1.80019       -1.25033
H         -0.58673       -0.44439        2.70064
C         -1.28833       -2.72628        3.92517
C          4.66254        0.91181       -0.04528
C          3.87941        1.48017       -1.08284
C          2.49972        1.41507       -0.97595
C          1.90424        0.74409        0.05921
C          2.65719        0.09794        1.00492
C          4.04098        0.13414        0.96462
O          6.06326        1.14337       -0.00055
C          4.50221        2.15902       -2.31319
H          1.86632        1.87809       -1.71267
H          2.14242       -0.44444        1.77946
C          4.84179       -0.64932        2.01649
C         -0.86380       -5.81031       -0.38703
C         -1.84399       -4.15175       -2.00199
C          0.64093       -4.32950       -1.68738
C         -1.39990       -4.21510        4.29622
C         -0.08520       -2.15456        4.70754
C         -2.56754       -1.99104        4.35888
C         -3.34582       -4.58541        1.56127
H         -1.84801       -5.96295        0.04949
H         -0.72309       -6.56911       -1.15642
H         -0.12273       -5.97596        0.39416
H         -1.74404       -3.16851       -2.46090
H         -1.81049       -4.89714       -2.79602
H         -2.82619       -4.20159       -1.53589
H          0.77005       -3.39516       -2.23103
H          1.45474       -4.41583       -0.96797
H          0.74153       -5.14025       -2.40840
H         -1.46208       -4.34739        5.37613
H         -2.28761       -4.66510        3.85810
H         -0.53288       -4.76707        3.93497
H         -0.18614       -2.35235        5.77438
H          0.84482       -2.60957        4.36780
H          0.00307       -1.07641        4.58436
H         -3.43918       -2.37376        3.83122
H         -2.74243       -2.11179        5.42762
H         -2.49433       -0.92411        4.15010
H         -3.83255       -5.52580        1.82059
H         -3.74267       -3.78926        2.18918
H         -3.55502       -4.34677        0.51969
C          6.43512        2.31681        0.71122
C          5.85097        1.51306       -2.67927
C          3.58070        2.00131       -3.54476
C          4.69158        3.65653       -2.02925
C          6.16646       -1.16754        1.42780
C          5.11781        0.25738        3.22527
C          4.04814       -1.88521        2.49963
H          5.73199        0.44183       -2.83835
H          6.25969        1.94830       -3.59083
H          6.58550        1.65316       -1.89018
H          3.31513        0.95569       -3.69853
H          2.66139        2.57483       -3.43742
H          4.07594        2.35769       -4.44763
H          5.35083        3.81649       -1.17946
H          5.12308        4.16561       -2.89070
H          3.73653        4.12918       -1.80115
H          6.81882       -0.34756        1.13761
H          6.70570       -1.77722        2.15236
H          5.98092       -1.77602        0.54331
H          4.18426        0.60639        3.66615
H          5.67589       -0.27623        3.99423
H          5.69534        1.13254        2.93769
H          3.72131       -2.49125        1.65496
H          3.17032       -1.59982        3.07758
H          4.66373       -2.51292        3.14353
H          7.10224        2.05021        1.53080
H          6.96864        2.99514        0.04569
H          5.55131        2.81711        1.10905
