105
-153.05930748
Cl         0.65265        3.74628        1.36346
Pd        -0.10947        1.96645        0.21302
P         -0.74906        0.23241       -1.28978
N          0.07107       -1.19248       -1.95698
C          0.15566       -2.51995       -1.54927
C         -0.15067       -2.98402       -0.24141
C          0.19652       -4.30337        0.12362
C          0.10546       -4.71021        1.57760
C          0.94132       -5.95143        1.92266
C          0.68213       -7.07054        0.90985
C          1.05402       -6.62225       -0.51307
C          0.69336       -5.19112       -0.83334
C          0.89878       -4.73970       -2.13050
C          0.65840       -3.43454       -2.47424
H          0.87360       -3.09444       -3.47251
H          1.28831       -5.42531       -2.86411
H          2.13268       -6.74770       -0.66615
H          1.22870       -7.98241        1.18900
H          2.00626       -5.68765        1.90814
H          0.41771       -3.86237        2.20071
C         -0.74124       -2.10698        0.80452
C          0.08590       -1.12476        1.40815
C         -0.36949       -0.44929        2.54036
C         -1.61386       -0.71651        3.04996
C         -2.45727       -1.64723        2.44924
C         -3.81197       -1.89275        3.05907
C         -4.40615       -3.25049        2.65714
C         -4.36541       -3.42122        1.13556
C         -2.92951       -3.32122        0.59030
C         -2.03163       -2.33970        1.31221
H         -2.46667       -4.31264        0.61097
H         -4.98569       -2.64398        0.67506
H         -5.43154       -3.36010        3.03796
H         -4.48757       -1.08562        2.75266
H         -1.95998       -0.18677        3.92116
H          0.25775        0.29683        2.99247
N          1.24733       -0.76768        0.72879
P          1.80899        0.84626        0.94725
C          2.92843        1.29172       -0.37408
C          3.16464        2.62035       -0.63486
C          3.94699        2.97846       -1.71704
C          4.49259        2.00607       -2.54496
C          4.22833        0.67000       -2.27292
C          3.44687        0.31370       -1.18869
H          3.22689       -0.72155       -0.98361
H          4.63074       -0.08946       -2.92131
C          5.30085        2.39006       -3.73502
H          4.12443        4.01775       -1.93462
H          2.69453        3.36763       -0.01527
C          2.58661        0.95352        2.55716
C          3.26516       -0.14819        3.02067
C          3.87062       -0.10905        4.26451
C          3.80268        1.03639        5.04678
C          3.10252        2.13419        4.56425
C          2.49950        2.09129        3.32192
H          1.95077        2.93674        2.94331
H          3.03045        3.02178        5.16935
C          4.43013        1.07108        6.39689
H          4.39687       -0.97147        4.63645
H          3.30492       -1.03696        2.41031
H          1.09465       -0.87497       -0.27348
H          0.26057       -0.99954       -2.93267
C         -0.60820        1.41525       -2.63965
C         -1.70888        1.96072       -3.25578
C         -1.53917        2.87859       -4.27561
C         -0.26656        3.25086       -4.68842
C          0.83207        2.69503       -4.04738
C          0.65960        1.77674       -3.02805
H          1.51102        1.35563       -2.51861
H          1.82363        2.99170       -4.34345
C         -0.08433        4.26431       -5.76396
H         -2.39757        3.31849       -4.75390
H         -2.69580        1.67923       -2.92771
C         -2.48773       -0.17337       -1.13326
C         -3.05313       -0.93094       -2.13116
C         -4.40614       -1.21932       -2.09549
C         -5.19953       -0.75120       -1.05717
C         -4.60987        0.01336       -0.05967
C         -3.25722        0.29582       -0.09572
H         -2.79987        0.88865        0.67953
H         -5.21853        0.39269        0.74317
C         -6.66105       -1.03547       -1.03327
H         -4.85460       -1.80697       -2.87813
H         -2.43195       -1.29006       -2.93678
Cl        -2.03793        3.03107       -0.22541
H          0.57662       -7.27711       -1.25320
H          0.73496       -6.29351        2.94673
H         -0.38009       -7.34452        0.93996
H         -0.94050       -4.89545        1.84185
H         -4.82823       -4.37319        0.83993
H         -2.95007       -3.04578       -0.47133
H         -3.73584       -1.81588        4.15123
H         -3.82703       -4.05460        3.12847
H          6.06657        1.64285       -3.94804
H          4.66795        2.48504       -4.61847
H          5.80489        3.34466       -3.57790
H          5.30959        0.42701        6.43914
H          4.74781        2.08163        6.65751
H          3.72743        0.73195        7.15921
H         -0.07240        5.27228       -5.34715
H          0.85497        4.10915       -6.29664
H         -0.89208        4.21169       -6.49528
H         -7.20807       -0.29833       -1.62252
H         -6.87607       -2.02273       -1.44474
H         -7.05213       -1.00902       -0.01514
