111
-148.54921557
P         -2.59088        1.97549        0.19141
P          0.18333        0.45289        0.44371
C         -1.73312        1.90029        1.79265
C         -0.50509        1.28215        1.88623
C         -3.60194        3.52686        0.08935
C         -3.29030        4.32938       -1.15425
C         -2.31047        2.44851        2.92095
H         -3.28057        2.91238        2.85258
C         -1.65052        2.38402        4.13604
H         -2.10192        2.81290        5.01580
C         -0.41764        1.76708        4.22401
H          0.09421        1.71269        5.17071
C          0.15411        1.20812        3.09550
H          1.10558        0.70240        3.15050
Pd        -1.00248        1.28811       -1.35681
Cl        -2.46034        1.95089       -2.92638
Cl         0.52286        0.45588       -2.78009
C         -5.05072        2.99840        0.14699
C         -3.92003        0.69871        0.01914
H         -2.22556        4.56467       -1.21957
H         -3.56016        3.76934       -2.05016
H         -3.84776        5.26871       -1.17660
H         -5.70637        3.66254       -0.43492
H         -5.42577        3.04476        1.17995
H         -3.61762        0.03287       -0.80107
C         -5.15489        1.53622       -0.37166
C         -4.08519       -0.08642        1.30222
H         -3.35995        4.11757        0.98289
H         -6.06436        1.05194        0.01297
H         -5.26474        1.54760       -1.46614
H         -4.36022        0.57509        2.12582
H         -4.86524       -0.84611        1.21119
H         -3.15608       -0.58846        1.58022
C         -1.44352       -3.80313        0.39061
C         -0.94289       -3.22337       -0.80267
C         -0.45356       -1.93113       -0.74424
C         -0.37340       -1.25240        0.44258
C         -0.74776       -1.85233        1.61651
C         -1.25314       -3.14181        1.63108
O         -2.17706       -5.01808        0.33897
C         -0.96723       -3.94419       -2.15888
H         -0.15139       -1.41838       -1.64007
H         -0.66426       -1.28557        2.52691
C         -1.62742       -3.78523        2.97542
C          4.71035        0.81859        0.06453
C          4.02737       -0.25492       -0.56628
C          2.65737       -0.35204       -0.38936
C          1.95934        0.60809        0.29526
C          2.59600        1.71960        0.78450
C          3.96724        1.87363        0.65758
O          6.12473        0.79516        0.17124
C          4.70604       -1.29237       -1.47669
H          2.11524       -1.18686       -0.79913
H          2.00555        2.47252        1.27842
C          4.59710        3.18465        1.15754
C         -0.86253       -5.47001       -1.98476
C         -2.26330       -3.58068       -2.89930
C          0.23757       -3.50896       -3.02441
C         -3.08805       -3.44985        3.31358
C         -1.43094       -5.31160        2.93174
C         -0.72414       -3.24656        4.10797
C         -3.57341       -4.83817        0.13683
H          0.03293       -5.73096       -1.42166
H         -1.72018       -5.86914       -1.44955
H         -0.81437       -5.97219       -2.95067
H         -2.32638       -2.50441       -3.05897
H         -2.30782       -4.06942       -3.87214
H         -3.13973       -3.88215       -2.33012
H          1.17183       -3.64371       -2.48019
H          0.29324       -4.10248       -3.93657
H          0.16384       -2.46566       -3.32705
H         -3.76488       -3.81534        2.54505
H         -3.38181       -3.89898        4.26196
H         -3.22791       -2.37229        3.39441
H         -2.09860       -5.77677        2.21071
H         -0.40843       -5.55892        2.64843
H         -1.63188       -5.76079        3.90402
H          0.32868       -3.35674        3.84940
H         -0.91904       -2.19511        4.31405
H         -0.89996       -3.79165        5.03512
H         -3.81875       -3.77596        0.09876
H         -3.87385       -5.31279       -0.79705
H         -4.12342       -5.30952        0.95127
C          6.57498        0.10114        1.32253
C          3.90879       -1.40554       -2.79509
C          6.14358       -0.89455       -1.85326
C          4.72017       -2.65957       -0.77344
C          4.62220        3.18435        2.69477
C          6.02436        3.38955        0.62030
C          3.75451        4.38199        0.66488
H          4.39787       -2.08826       -3.48933
H          2.90031       -1.77845       -2.62753
H          3.82779       -0.43271       -3.27902
H          6.79311       -0.89156       -0.98118
H          6.56700       -1.59007       -2.57750
H          6.16408        0.10420       -2.28800
H          5.28110       -2.61475        0.15850
H          3.70842       -2.98806       -0.53749
H          5.17966       -3.41826       -1.40644
H          3.61644        3.07899        3.10057
H          5.22263        2.36117        3.07746
H          5.04329        4.11361        3.07764
H          6.70414        2.63594        1.01103
H          6.03902        3.32108       -0.46689
H          6.41562        4.36582        0.90553
H          4.22577        5.32631        0.93629
H          2.75657        4.38198        1.09991
H          3.65024        4.35785       -0.41949
H          6.21167        0.59579        2.22197
H          6.20419       -0.92287        1.31037
H          7.66508        0.09069        1.33269
