105
-153.07108807
Cl        -0.03223        1.93593        3.02075
Pd        -0.60202        1.11713        0.99211
P         -1.24992        0.48848       -1.15751
N         -0.95277       -1.07395       -1.90114
C          0.07613       -1.97835       -1.62100
C          0.32093       -2.47738       -0.31380
C          1.34603       -3.42540       -0.11771
C          1.56740       -3.98442        1.26794
C          2.44878       -5.24210        1.31700
C          3.67082       -5.09070        0.40694
C          3.23660       -4.86022       -1.04813
C          2.11600       -3.86187       -1.19926
C          1.83564       -3.38299       -2.47249
C          0.83414       -2.47219       -2.68278
H          0.63320       -2.10934       -3.67565
H          2.42378       -3.73576       -3.30282
H          4.09075       -4.52626       -1.65112
H          4.27344       -4.23942        0.74752
H          2.75700       -5.46356        2.34858
H          2.01614       -3.19978        1.88772
C         -0.62024       -2.19012        0.79523
C         -0.14675       -1.60592        2.00397
C         -1.02566       -1.51333        3.08813
C         -2.32379       -1.94051        2.98367
C         -2.80781       -2.50437        1.80973
C         -4.24247       -2.97809        1.79204
C         -4.74691       -3.45310        0.41876
C         -3.65666       -4.22125       -0.33301
C         -2.42106       -3.33447       -0.54158
C         -1.95119       -2.64467        0.71538
H         -1.59681       -3.92918       -0.95478
H         -4.03491       -4.60076       -1.29283
H         -5.05347       -2.58725       -0.18083
H         -4.88158       -2.17044        2.17105
H         -2.98864       -1.84293        3.82525
H         -0.67758       -1.06044        3.99989
N          1.13233       -1.04131        2.11619
P          1.56214        0.17006        0.90955
C          2.65827       -0.40151       -0.37866
C          2.48896        0.07921       -1.65235
C          3.37259       -0.29306       -2.64852
C          4.43406       -1.14305       -2.36675
C          4.60816       -1.58702       -1.06221
C          3.72105       -1.21440       -0.06812
H          3.85185       -1.54940        0.94854
H          5.44186       -2.22729       -0.82995
C          5.38937       -1.54154       -3.43661
H          3.23968        0.07291       -3.65216
H          1.66410        0.73884       -1.85838
C          2.40518        1.58898        1.61844
C          3.17904        1.45731        2.74599
C          3.82888        2.56354        3.26279
C          3.71623        3.80258        2.64586
C          2.93216        3.91243        1.50533
C          2.28375        2.80562        0.98881
H          1.67494        2.88725        0.10145
H          2.82837        4.87095        1.02622
C          4.38855        5.00030        3.22103
H          4.42692        2.47110        4.15325
H          3.27641        0.49246        3.21630
H          1.32185       -0.59588        3.00468
H         -1.23474       -0.96339       -2.86666
C         -0.52897        1.82497       -2.11359
C         -0.56492        3.09946       -1.59836
C          0.02109        4.14089       -2.29249
C          0.64497        3.91208       -3.51137
C          0.64501        2.62419       -4.03050
C          0.05844        1.58424       -3.33312
H          0.07534        0.58196       -3.72768
H          1.11180        2.44011       -4.98310
C          1.26222        5.03549       -4.26913
H         -0.00475        5.13971       -1.89146
H         -1.06605        3.27289       -0.65891
C         -3.03202        0.69525       -1.18055
C         -3.62038        1.47601       -2.14703
C         -4.99433        1.63479       -2.16058
C         -5.78618        1.01864       -1.20107
C         -5.17366        0.22545       -0.24087
C         -3.80041        0.06381       -0.23462
H         -3.31840       -0.54240        0.51359
H         -5.77868       -0.25876        0.50634
C         -7.26690        1.17389       -1.22451
H         -5.46030        2.24329       -2.91671
H         -3.00329        1.96149       -2.88594
Cl        -2.48720        2.34210        1.19700
H          2.91820       -5.81050       -1.49314
H          1.86150       -6.11047        0.99298
H          4.32836       -5.96802        0.48632
H          0.59119       -4.19443        1.72298
H         -3.37293       -5.10946        0.24534
H         -2.64121       -2.57038       -1.29582
H         -4.34298       -3.79255        2.51945
H         -5.65149       -4.06814        0.52647
H          4.89298       -1.59448       -4.40665
H          6.20620       -0.82278       -3.51437
H          5.82141       -2.52240       -3.23297
H          3.73514        5.50499        3.93393
H          5.30656        4.72484        3.74202
H          4.65277        5.71605        2.44131
H          0.53119        5.50629       -4.92780
H          1.64870        5.80006       -3.59371
H          2.09355        4.68645       -4.88328
H         -7.55383        2.14979       -1.61863
H         -7.72690        0.40859       -1.85119
H         -7.68769        1.08593       -0.22188
