111
-148.55630696
P         -2.50070        2.12048        1.08620
P          0.09598        0.35563        0.57452
C         -1.40676        1.69519        2.46787
C         -0.27019        0.95040        2.23605
C         -3.16795        3.84056        1.21741
C         -2.55778        4.73565        0.16078
C         -1.71825        2.09388        3.75181
H         -2.61780        2.66028        3.92989
C         -0.88252        1.75102        4.80088
H         -1.12472        2.06184        5.80405
C          0.25901        1.00894        4.56461
H          0.90827        0.74056        5.38167
C          0.56471        0.60441        3.27737
H          1.44544        0.01467        3.07563
Pd        -1.34143        1.52250       -0.80709
Cl        -3.06590        2.18851       -2.07576
Cl         0.02272        1.05969       -2.53503
C         -4.68917        3.63559        1.08050
C         -4.07587        1.15251        1.09464
H         -2.77324        4.35472       -0.83912
H         -2.95469        5.75187        0.21999
H         -1.47112        4.78835        0.26383
H         -4.97303        3.79975        0.03187
H         -5.23284        4.40002        1.65611
H         -4.24547        0.83828        0.05598
C         -5.11995        2.20431        1.51158
C         -3.98092       -0.04847        2.01027
H         -2.91597        4.19870        2.22375
H         -5.24068        2.16995        2.60317
H         -6.10714        1.94895        1.09703
H         -3.75610        0.25975        3.03299
H         -4.91726       -0.61091        2.03084
H         -3.18569       -0.72510        1.68976
C         -1.09638       -3.98954       -0.05857
C         -1.15654       -3.44250        1.25175
C         -0.78311       -2.12024        1.42835
C         -0.44564       -1.33525        0.35745
C         -0.51487       -1.82236       -0.92052
C         -0.87613       -3.13405       -1.17054
O         -1.16874       -5.39344       -0.24878
C         -1.61419       -4.23297        2.48918
H         -0.73672       -1.69214        2.41467
H         -0.27156       -1.15425       -1.72971
C         -1.01994       -3.56735       -2.63845
C          4.42114        0.74477       -0.77819
C          3.90025       -0.52721       -0.42839
C          2.58072       -0.60190       -0.01646
C          1.81619        0.52696        0.12168
C          2.34587        1.76850       -0.11031
C          3.65904        1.91524       -0.52768
O          5.68601        0.84266       -1.41669
C          4.71819       -1.82360       -0.53605
H          2.12061       -1.55478        0.18030
H          1.70639        2.62536        0.01553
C          4.21541        3.32937       -0.75459
C         -2.62101       -3.38561        3.29805
C         -2.32986       -5.54288        2.11581
C         -0.39591       -4.54692        3.37311
C          0.37489       -3.66946       -3.27817
C         -1.75393       -4.91137       -2.78318
C         -1.85067       -2.51232       -3.40330
C          0.10222       -6.01977       -0.19146
H         -3.46885       -3.10018        2.67618
H         -3.00467       -3.94704        4.14954
H         -2.16608       -2.47655        3.68789
H         -2.73064       -6.03765        3.00020
H         -3.15482       -5.34831        1.43136
H         -1.65037       -6.23872        1.62942
H          0.33075       -5.15631        2.83914
H          0.10454       -3.63111        3.68626
H         -0.69482       -5.08937        4.26968
H          0.98781       -4.41145       -2.76986
H          0.30224       -3.95505       -4.32719
H          0.89747       -2.71474       -3.22617
H         -1.17614       -5.72467       -2.35060
H         -2.71735       -4.87942       -2.27557
H         -1.92905       -5.15255       -3.83137
H         -1.34200       -1.55092       -3.44995
H         -2.03458       -2.83128       -4.42879
H         -2.81530       -2.35871       -2.92054
H          0.75940       -5.60332       -0.95323
H          0.55417       -5.85986        0.78610
H         -0.01616       -7.08987       -0.36287
C          5.62384        0.76848       -2.83568
C          4.24684       -2.85434        0.51584
C          4.52426       -2.43074       -1.93404
C          6.21169       -1.56261       -0.27010
C          5.72796        3.38478       -0.47337
C          3.92785        3.75922       -2.20134
C          3.54338        4.34035        0.20218
H          4.24642       -2.41697        1.51390
H          3.24413       -3.22152        0.30139
H          4.90717       -3.72116        0.53065
H          5.08404       -3.35991       -2.03758
H          3.47208       -2.64843       -2.11612
H          4.85921       -1.74793       -2.71105
H          6.35166       -1.09480        0.70384
H          6.78077       -2.49180       -0.28522
H          6.63968       -0.90300       -1.02063
H          6.28406        2.75719       -1.16513
H          6.10805        4.40118       -0.57304
H          5.94307        3.03959        0.53733
H          2.85656        3.74580       -2.40088
H          4.29468        4.76780       -2.38988
H          4.40386        3.08984       -2.91366
H          3.61617        4.00305        1.23580
H          2.49140        4.48600       -0.03859
H          4.02431        5.31588        0.13379
H          6.04840        1.67424       -3.26832
H          6.20993       -0.08160       -3.18439
H          4.58990        0.65763       -3.16519
