105
-153.07036123
Cl        -0.07175        1.92194        3.05554
Pd        -0.66661        1.12568        1.03279
P         -1.30867        0.54712       -1.13777
N         -1.09912       -1.05637       -1.81652
C         -0.00458       -1.90555       -1.60943
C          0.31346       -2.42156       -0.32573
C          1.37758       -3.33415       -0.18762
C          1.66701       -3.91423        1.17605
C          2.58038       -5.14968        1.16077
C          3.76523       -4.94378        0.21275
C          3.27682       -4.68317       -1.22040
C          2.12079       -3.71792       -1.30683
C          1.77623       -3.21877       -2.55688
C          0.73338       -2.34276       -2.70991
H          0.47873       -1.97083       -3.68680
H          2.34487       -3.53120       -3.41640
H          4.10024       -4.30370       -1.83893
H          4.36004       -4.08889        0.55757
H          2.93058       -5.38937        2.17473
H          2.11919       -3.13098        1.79515
C         -0.59548       -2.17894        0.81769
C         -0.10695       -1.56706        2.00484
C         -0.96457       -1.47733        3.10633
C         -2.26035       -1.91934        3.03051
C         -2.75866       -2.50931        1.87493
C         -4.19104       -2.98997        1.88599
C         -4.68390       -3.59926        0.56128
C         -3.56682       -4.36847       -0.15009
C         -2.37401       -3.44527       -0.43622
C         -1.91453       -2.67086        0.77469
H         -1.53183       -4.02950       -0.82806
H         -3.93698       -4.83043       -1.07634
H         -5.04650       -2.80264       -0.09950
H         -4.83519       -2.15067        2.17781
H         -2.91373       -1.80855        3.87934
H         -0.60817       -1.00114        4.00284
N          1.15960       -0.96843        2.07458
P          1.53951        0.24565        0.84820
C          2.67135       -0.32560       -0.41116
C          2.51977        0.11569       -1.70107
C          3.43468       -0.25958       -2.66714
C          4.51829       -1.06264       -2.33715
C          4.66413       -1.48134       -1.02096
C          3.74464       -1.10653       -0.05742
H          3.85810       -1.41579        0.96946
H          5.50116       -2.10417       -0.75566
C          5.47999       -1.50265       -3.38493
H          3.30895        0.06721       -3.68513
H          1.68501        0.74876       -1.94471
C          2.36713        1.67221        1.56144
C          3.13607        1.54591        2.69310
C          3.77738        2.65551        3.21336
C          3.66287        3.89346        2.59489
C          2.88651        3.99774        1.44877
C          2.24664        2.88715        0.92992
H          1.65227        2.96228        0.03343
H          2.78361        4.95457        0.96604
C          4.32656        5.09495        3.17224
H          4.37085        2.56626        4.10719
H          3.23946        0.58204        3.16380
H          1.35890       -0.51118        2.95467
H         -1.43610       -0.95861       -2.76566
C         -0.47035        1.78530       -2.13129
C         -0.28155        3.05057       -1.62517
C          0.40336        3.99463       -2.36764
C          0.90045        3.67990       -3.62478
C          0.67294        2.40828       -4.13261
C         -0.01106        1.46542       -3.38736
H         -0.16661        0.47269       -3.77478
H          1.04014        2.15915       -5.11359
C          1.62436        4.70040       -4.43200
H          0.55499        4.98519       -1.97370
H         -0.67762        3.30136       -0.65369
C         -3.07306        0.86065       -1.22274
C         -3.56431        1.98159       -1.84930
C         -4.92935        2.19587       -1.90435
C         -5.81121        1.28623       -1.33639
C         -5.29523        0.16599       -0.69955
C         -3.92937       -0.04679       -0.64972
H         -3.51782       -0.89357       -0.12564
H         -5.96945       -0.53028       -0.23125
C         -7.27941        1.53270       -1.36464
H         -5.31873        3.07635       -2.38631
H         -2.87994        2.68677       -2.29157
Cl        -2.82562        1.28870        1.68801
H          2.97467       -5.62949       -1.68472
H          2.00355       -6.02424        0.83465
H          4.44502       -5.80704        0.24440
H          0.71506       -4.15895        1.66402
H         -3.23763       -5.20085        0.48449
H         -2.63508       -2.73896       -1.23198
H         -4.29635       -3.72954        2.68886
H         -5.55293       -4.25001        0.73282
H          5.61149       -0.73231       -4.14608
H          6.46035       -1.71566       -2.95650
H          5.12515       -2.40786       -3.87968
H          4.60466        5.80434        2.39152
H          3.66173        5.60575        3.87005
H          5.23530        4.82276        3.71092
H          2.14064        5.41607       -3.79059
H          2.37179        4.23466       -5.07588
H          0.93171        5.25518       -5.06636
H         -7.56742        2.09600       -2.25335
H         -7.83599        0.59448       -1.37280
H         -7.59251        2.10231       -0.48865
