111
-148.55185995
P         -2.76226        1.83622       -0.36308
P          0.10407        0.60766        0.17137
C         -1.87470        2.25128        1.16421
C         -0.59784        1.76997        1.35758
C         -3.78817        3.26350       -0.94711
C         -3.11261        4.04983       -2.04911
C         -2.46240        3.04466        2.12925
H         -3.46888        3.40184        1.98725
C         -1.76332        3.36177        3.28120
H         -2.22213        3.98131        4.03441
C         -0.48047        2.88417        3.46813
H          0.06250        3.12859        4.36627
C          0.10206        2.08048        2.50505
H          1.09433        1.68157        2.64490
Pd        -1.20585        0.80504       -1.73352
Cl        -2.55771        1.24789       -3.46339
Cl         0.40559       -0.25425       -2.88514
C         -5.10889        2.58047       -1.34410
C         -4.08020        0.54922       -0.16167
H         -3.72529        4.89598       -2.36844
H         -2.14369        4.43552       -1.72376
H         -2.93804        3.42492       -2.92476
H         -5.05000        2.28696       -2.40139
H         -5.94532        3.29321       -1.27974
H         -3.89020       -0.20317       -0.93892
C         -5.37795        1.32191       -0.46956
C         -4.03339       -0.07756        1.21503
H         -3.94928        3.90473       -0.07149
H         -5.83899        1.62942        0.47902
H         -6.11246        0.65953       -0.95202
H         -4.15431        0.68128        1.99032
H         -4.82723       -0.81671        1.34547
H         -3.07784       -0.57533        1.39062
C         -1.17560       -3.57737        1.43999
C         -0.74912       -3.34236        0.10809
C         -0.37194       -2.05780       -0.23969
C         -0.34859       -1.04930        0.68583
C         -0.65046       -1.29689        1.99894
C         -1.02916       -2.56077        2.41847
O         -1.78674       -4.81267        1.78264
C         -0.73381       -4.43958       -0.96674
H         -0.10300       -1.81578       -1.25251
H         -0.60333       -0.47890        2.69583
C         -1.30690       -2.79716        3.91084
C          4.63961        0.90514       -0.08610
C          3.84215        1.53070       -1.07890
C          2.46395        1.45907       -0.95709
C          1.88295        0.73193        0.04787
C          2.64887        0.03575        0.94644
C          4.03190        0.07278        0.88795
O          6.04100        1.13398       -0.04988
C          4.44954        2.27929       -2.27595
H          1.82041        1.96216       -1.65789
H          2.14482       -0.54703        1.69833
C          4.84506       -0.77126        1.88196
C         -2.09023       -4.45994       -1.68771
C          0.37445       -4.16511       -2.00915
C         -0.43826       -5.81816       -0.34907
C         -0.98879       -4.24887        4.31229
C         -0.41231       -1.88423        4.78053
C         -2.77829       -2.47362        4.21172
C         -3.20042       -4.81883        1.62731
H         -2.29311       -3.49553       -2.15306
H         -2.10688       -5.22119       -2.46716
H         -2.90166       -4.67000       -0.99495
H          1.33694       -4.01444       -1.52101
H          0.47526       -5.00430       -2.69691
H          0.15402       -3.28468       -2.61084
H          0.50196       -5.79825        0.20102
H         -1.22200       -6.11985        0.34130
H         -0.36462       -6.58522       -1.11956
H         -1.63778       -4.95401        3.79916
H          0.04132       -4.49925        4.06086
H         -1.12253       -4.39767        5.38348
H         -0.51093       -2.13793        5.83576
H          0.63657       -1.99478        4.50622
H         -0.68483       -0.83488        4.67798
H         -3.44747       -3.09889        3.62535
H         -3.00531       -2.63267        5.26555
H         -3.00117       -1.43410        3.97237
H         -3.48722       -5.59895        0.92232
H         -3.67311       -5.03479        2.58528
H         -3.54749       -3.85197        1.26042
C          6.42552        2.25829        0.73109
C          5.78807        1.64866       -2.70157
C          3.50783        2.20223       -3.49981
C          4.65388        3.75561       -1.90491
C          6.16643       -1.24713        1.25156
C          5.12801        0.05970        3.14247
C          4.05974       -2.03832        2.29311
H          5.65949        0.58957       -2.92242
H          6.18544        2.13537       -3.59187
H          6.53566        1.73723       -1.91722
H          3.23330        1.16943       -3.71300
H          2.59412        2.77326       -3.34271
H          3.99115        2.61056       -4.38700
H          5.32827        3.85956       -1.05833
H          5.07470        4.31357       -2.74100
H          3.70604        4.21914       -1.63239
H          6.81417       -0.40863        1.00793
H          6.71330       -1.89906        1.93230
H          5.97545       -1.79975        0.33226
H          4.19693        0.37529        3.61279
H          5.69594       -0.51776        3.87150
H          5.69827        0.95448        2.90486
H          3.72831       -2.59145        1.41460
H          3.18540       -1.79411        2.89474
H          4.68299       -2.70263        2.89130
H          7.09473        1.93704        1.52907
H          6.96079        2.97220        0.10533
H          5.54763        2.73967        1.16382
