45
-71.81712545
C          0.33986        0.68099        2.45103
P          0.95719        0.65891        0.73398
P         -1.60796        0.24201       -1.06654
C         -2.39390       -0.13103       -2.66959
Cl         1.58799       -2.50083        0.65636
H         -0.74459        0.62065        2.45481
H         -3.22416        0.54681       -2.84581
Cl        -1.06032       -2.81929       -1.38911
C          0.30149        2.03781       -0.22440
C         -0.80435        1.85869       -1.02702
C         -1.31522        2.91801       -1.74858
C         -0.70457        4.15771       -1.67425
C          0.40874        4.33450       -0.87539
C          0.91304        3.27183       -0.14646
H         -2.19058        2.77198       -2.36027
H         -1.09978        4.98617       -2.23874
H          0.88419        5.29981       -0.81803
H          1.78092        3.39355        0.48179
Pd         0.06083       -1.18969       -0.32438
H         -2.76679       -1.15124       -2.66739
H          0.64210        1.59995        2.94496
H         -1.66836       -0.02268       -3.47069
C         -4.43645       -0.19706        2.46196
C         -3.93868        1.04918        2.13382
C         -3.08849        1.18870        1.05167
C         -2.74871        0.08325        0.30661
C         -3.23251       -1.16161        0.63549
C         -4.08368       -1.30448        1.71562
H         -5.09846       -0.30639        3.30542
H         -4.20987        1.91142        2.72052
H         -2.68422        2.15248        0.78740
H         -2.91499       -2.01579        0.05882
H         -4.46395       -2.27824        1.97717
C          5.49132        0.53392        0.38781
C          4.69824        0.24913       -0.70606
C          3.32037        0.29021       -0.58723
C          2.74719        0.61066        0.62232
C          3.53357        0.89865        1.71488
C          4.91139        0.85981        1.59794
H          6.56477        0.50119        0.29712
H          5.14999       -0.00664       -1.65038
H          2.68732        0.07206       -1.43323
H          3.07026        1.15266        2.65440
H          5.53079        1.08263        2.45124
H          0.74062       -0.16765        2.99810
