171
-217.83690186
P         -1.47026        0.36096       -0.36943
P          1.70757       -0.61430       -0.15487
C         -0.61623        1.22897       -1.69505
C          1.05111       -1.54618       -1.55593
C          0.14898        0.53055       -2.62045
C          0.83107        1.24922       -3.62227
C          0.69403        2.62587       -3.68103
C         -0.07110        3.30170       -2.75572
C         -0.71445        2.59856       -1.75640
C          1.26445       -2.90421       -1.55935
C          0.70159       -3.70009       -2.53709
C         -0.11256       -3.13184       -3.49252
C         -0.34513       -1.76727       -3.50954
C          0.27692       -0.94874       -2.54690
Cl         1.35525       -0.45981        3.06198
Cl        -1.85607       -1.21380        2.52104
C         -1.25072       -1.19955       -4.54550
C          1.68544        0.55219       -4.62339
H         -0.16727        4.37339       -2.81391
H         -1.29091        3.12648       -1.01494
H          1.87939       -3.34953       -0.79510
H          0.88566       -4.76212       -2.54215
H          1.19976        3.17017       -4.46044
H         -0.57898       -3.75068       -4.24055
C         -4.16909       -2.97527       -1.83715
C         -3.17143       -3.26865       -0.91472
C         -2.34527       -2.23279       -0.50233
C         -2.51828       -0.95916       -0.98404
C         -3.50565       -0.68882       -1.89875
C         -4.35545       -1.69372       -2.34438
H         -4.82650       -3.76067       -2.15628
H         -1.57099       -2.42152        0.22075
H         -3.62360        0.31619       -2.26252
C         -4.08570        3.41275        1.78050
C         -3.17982        2.68005        2.53647
C         -2.38224        1.75675        1.87687
C         -2.49767        1.55610        0.52262
C         -3.40650        2.28766       -0.20404
C         -4.20957        3.24214        0.40794
H         -4.71947        4.13026        2.26667
H         -1.67982        1.17367        2.44261
H         -3.46798        2.12807       -1.26570
C          4.72568       -3.09045        2.14800
C          5.16885       -1.96385        1.46379
C          4.23032       -1.22247        0.75902
C          2.91055       -1.59741        0.74484
C          2.48902       -2.70961        1.42962
C          3.39251       -3.48295        2.14633
H          5.42936       -3.67684        2.70825
H          4.52933       -0.33660        0.22641
H          1.44045       -2.95455        1.42039
C          3.32152        3.53845       -0.92362
C          2.31426        3.37410        0.01863
C          1.83524        2.08905        0.23326
C          2.33094        1.03045       -0.48862
C          3.32307        1.20934       -1.42005
C          3.84762        2.47590       -1.64889
H          3.71936        4.52305       -1.08729
H          1.07219        1.90492        0.96844
H          3.68487        0.35105       -1.96020
Pd        -0.08980       -0.48233        1.33588
C         -3.19616       -4.56050        1.23108
C         -2.98873       -4.66073       -0.29222
C         -1.56658       -5.17074       -0.58364
C         -3.99742       -5.67715       -0.85990
H         -3.09229       -5.53634        1.70492
H         -2.46835       -3.88999        1.68662
H         -4.19017       -4.17689        1.45952
H         -1.40090       -5.24451       -1.65781
H         -0.81305       -4.50099       -0.17100
H         -1.40809       -6.15764       -0.14931
H         -5.02244       -5.37217       -0.65003
H         -3.88112       -5.78393       -1.93829
H         -3.84846       -6.66004       -0.41297
C         -6.24716       -2.59710       -3.79115
C         -5.51904       -1.33774       -3.28266
C         -4.99727       -0.55912       -4.50556
C         -6.52322       -0.46444       -2.50861
H         -5.55813       -3.26401       -4.30929
H         -6.70868       -3.14521       -2.97013
H         -7.03928       -2.32952       -4.49043
H         -4.28779       -1.16016       -5.07241
H         -5.81638       -0.29389       -5.17387
H         -4.50048        0.36464       -4.21243
H         -6.05271        0.45123       -2.15271
H         -7.36804       -0.18615       -3.13833
H         -6.90898       -0.99859       -1.64052
C         -3.41069        1.47097        4.71709
C         -3.05832        2.81939        4.06100
C         -4.00977        3.89793        4.61300
C         -1.61468        3.20863        4.42845
H         -2.72999        0.68413        4.39415
H         -3.35219        1.53750        5.80320
H         -4.42225        1.16604        4.45024
H         -3.90530        3.98872        5.69413
H         -3.79178        4.87285        4.17726
H         -5.04973        3.64888        4.40281
H         -1.50361        3.31990        5.50682
H         -0.90302        2.45278        4.09849
H         -1.34237        4.15525        3.96311
C         -6.64498        3.71802        0.07278
C         -5.22140        4.08334       -0.38342
C         -5.11001        3.83001       -1.90031
C         -4.95803        5.57922       -0.12620
H         -7.39093        4.29077       -0.47797
H         -6.84178        2.65886       -0.09288
H         -6.78277        3.92141        1.13422
H         -4.10862        4.06119       -2.26343
H         -5.33534        2.79262       -2.14472
H         -5.81367        4.45543       -2.44953
H         -5.64135        6.20022       -0.70525
H         -5.09059        5.83292        0.92469
H         -3.93935        5.84409       -0.40928
C          6.71887       -0.08732        2.06222
C          6.63423       -1.50608        1.46823
C          7.16587       -1.49331        0.02295
C          7.52245       -2.44287        2.30902
H          6.14944        0.62619        1.46755
H          6.31946       -0.07070        3.07603
H          7.75139        0.25948        2.09941
H          6.60019       -0.80179       -0.60024
H          8.21170       -1.18799       -0.00573
H          7.09049       -2.48450       -0.42381
H          7.19214       -2.46898        3.34727
H          7.50548       -3.45854        1.91417
H          8.55820       -2.10351        2.30125
C          3.22372       -4.47255        4.43974
C          2.94659       -4.71539        2.94535
C          3.72882       -5.95017        2.46178
C          1.43982       -4.99326        2.76673
H          4.28601       -4.31707        4.62445
H          2.69075       -3.58836        4.78907
H          2.90019       -5.32238        5.04044
H          4.79982       -5.82891        2.61928
H          3.41344       -6.84562        2.99708
H          3.56338       -6.11730        1.39755
H          0.84048       -4.15803        3.12878
H          1.19432       -5.16687        1.71910
H          1.14047       -5.87889        3.32690
C          1.28772        5.66319       -0.15291
C          1.79564        4.57949        0.81534
C          2.94284        5.14486        1.67162
C          0.63371        4.18563        1.74866
H          0.46694        5.28208       -0.75849
H          0.92383        6.53327        0.39335
H          2.07564        5.99852       -0.82598
H          2.60504        5.99337        2.26636
H          3.32407        4.38461        2.35318
H          3.77100        5.48114        1.04869
H          0.26166        5.05639        2.28800
H         -0.19919        3.76590        1.18503
H          0.95537        3.45245        2.48784
C          4.53869        3.71165       -3.72044
C          4.99749        2.72036       -2.63586
C          5.44723        1.41534       -3.32151
C          6.20127        3.30398       -1.87274
H          3.67871        3.31937       -4.26158
H          4.25216        4.66911       -3.28707
H          5.33460        3.89665       -4.44162
H          5.80319        0.69073       -2.58961
H          4.63110        0.96403       -3.88400
H          6.26228        1.60614       -4.01951
H          5.95239        4.25786       -1.40927
H          6.52344        2.62310       -1.08487
H          7.04511        3.46890       -2.54248
H         -2.14919       -1.81022       -4.64211
H          2.12090       -0.35718       -4.20652
H         -0.76172       -1.16872       -5.51997
H         -1.56573       -0.18680       -4.29022
H          2.50640        1.19055       -4.95205
H          1.10687        0.27737       -5.50595
