111
-148.55381242
P         -2.49830        2.14240        0.88784
P          0.07945        0.34131        0.53795
C         -1.46200        1.76985        2.32643
C         -0.32560        1.00854        2.16255
C         -3.14474        3.87565        0.93544
C         -2.46064        4.74281       -0.09885
C         -1.80938        2.22750        3.58126
H         -2.70971        2.80645        3.70688
C         -1.00784        1.92723        4.66928
H         -1.27773        2.28400        5.64984
C          0.13539        1.16946        4.50074
H          0.75852        0.93496        5.34802
C          0.47624        0.70551        3.24276
H          1.35892        0.10313        3.09418
Pd        -1.32560        1.41650       -0.96148
Cl        -2.96155        2.24565       -2.24632
Cl         0.16220        0.86421       -2.55478
C         -4.65783        3.68598        0.71717
C         -4.08827        1.19685        0.87919
H         -2.62583        4.35060       -1.10347
H         -2.84220        5.76634       -0.07770
H         -1.38084        4.77885        0.06477
H         -4.87605        3.80260       -0.35332
H         -5.22196        4.48466        1.22234
H         -4.21675        0.82757       -0.14716
C         -5.13477        2.28266        1.19016
C         -4.05097        0.04691        1.86250
H         -2.94823        4.25352        1.94691
H         -5.31361        2.30186        2.27406
H         -6.10292        2.02265        0.73567
H         -4.99581       -0.50141        1.87291
H         -3.25332       -0.65719        1.61501
H         -3.86567        0.40850        2.87560
C         -1.16690       -4.01780        0.11260
C         -1.21150       -3.40602        1.39232
C         -0.81627       -2.08313        1.50218
C         -0.46545       -1.35896        0.39341
C         -0.53493       -1.91285       -0.85728
C         -0.91494       -3.23016       -1.03941
O         -1.33457       -5.42284       -0.00955
C         -1.64395       -4.16640        2.65577
H         -0.76517       -1.60130        2.46236
H         -0.27495       -1.29047       -1.69600
C         -1.01176       -3.78367       -2.46912
C          4.44327        0.82197       -0.66335
C          3.82923       -0.45451       -0.73016
C          2.50204       -0.56137       -0.35299
C          1.81275        0.51746        0.13470
C          2.42887        1.73049        0.29492
C          3.75850        1.90558       -0.05454
O          5.72464        1.02389       -1.24158
C          4.55501       -1.70478       -1.25080
H          1.97850       -1.49510       -0.45665
H          1.84760        2.54748        0.68708
C          4.42212        3.26895        0.19515
C         -0.41423       -4.82674        3.29706
C         -2.27899       -3.20311        3.68443
C         -2.70577       -5.23098        2.32494
C          0.36107       -4.32485       -2.89688
C         -2.07555       -4.89190       -2.56611
C         -1.43168       -2.66899       -3.45523
C         -0.11969       -6.15820        0.06792
H          0.33223       -4.07749        3.55983
H         -0.68819       -5.36366        4.20488
H          0.05275       -5.53458        2.61648
H         -3.09075       -2.63386        3.23289
H         -2.68946       -3.75604        4.52905
H         -1.54936       -2.50184        4.08650
H         -3.06013       -5.72542        3.22906
H         -3.56263       -4.77674        1.82846
H         -2.30653       -5.99802        1.66594
H          0.32567       -4.72203       -3.91095
H          1.11112       -3.53481       -2.87034
H          0.69548       -5.12039       -2.23515
H         -2.18729       -5.23918       -3.59293
H         -1.81078       -5.75134       -1.95548
H         -3.04304       -4.52536       -2.22466
H         -0.65155       -1.91861       -3.57363
H         -1.63013       -3.08151       -4.44407
H         -2.33748       -2.16933       -3.11284
H          0.03562       -6.70890       -0.85961
H          0.72251       -5.48581        0.23661
H         -0.18008       -6.87739        0.88463
C          5.68542        1.42154       -2.60648
C          4.34776       -1.81317       -2.76926
C          6.05735       -1.65377       -0.92001
C          3.99003       -2.98142       -0.58548
C          5.92779        3.11231        0.47567
C          4.20164        4.17237       -1.02762
C          3.80423        3.95607        1.43437
H          4.83231       -2.70427       -3.16744
H          3.28627       -1.86921       -3.00950
H          4.75711       -0.94842       -3.28579
H          6.21015       -1.53672        0.15233
H          6.55957       -2.56754       -1.23671
H          6.54581       -0.82053       -1.41880
H          4.00046       -2.88982        0.50029
H          2.96833       -3.18515       -0.90255
H          4.58630       -3.85336       -0.85343
H          6.38357        4.07244        0.71630
H          6.09343        2.43814        1.31532
H          6.45239        2.70667       -0.38567
H          3.13746        4.31155       -1.21661
H          4.64894        5.15406       -0.87388
H          4.64159        3.73909       -1.92256
H          3.82874        3.29204        2.29806
H          2.77127        4.25259        1.25877
H          4.35652        4.85976        1.69118
H          6.21938        0.69250       -3.21571
H          4.65296        1.49687       -2.95036
H          6.17854        2.38669       -2.72100
