171
-217.83463083
P         -1.60618        0.76571        0.37285
P          1.40770       -0.32747       -0.38837
C         -0.94797        1.71621       -1.01874
C          0.36112       -1.12168       -1.62841
C         -0.46048        1.15256       -2.19180
C          0.11511        1.99568       -3.16102
C          0.15610        3.36103       -2.93475
C         -0.33571        3.90356       -1.76721
C         -0.87865        3.07303       -0.80602
C          0.39330       -2.48177       -1.82091
C         -0.41289       -3.06882       -2.77603
C         -1.26819       -2.28795       -3.52454
C         -1.33533       -0.91795       -3.33297
C         -0.48223       -0.31879       -2.38605
Cl         2.46949        1.36410        2.24106
Cl        -0.55955        0.94108        3.49895
C         -2.29162       -0.10358       -4.13243
C          0.70259        1.45400       -4.41738
H         -0.28860        4.96717       -1.59974
H         -1.24587        3.48074        0.12433
H          1.03828       -3.09260       -1.21389
H         -0.37982       -4.13472       -2.93164
H          0.59245        3.99999       -3.68395
H         -1.89525       -2.74278       -4.27231
C         -3.02048       -3.49869       -0.21827
C         -1.86650       -3.29384        0.52720
C         -1.42942       -1.98579        0.70156
C         -2.11374       -0.94172        0.12293
C         -3.25445       -1.16544       -0.60831
C         -3.73737       -2.45546       -0.78828
H         -3.38258       -4.50226       -0.34504
H         -0.54835       -1.77491        1.28022
H         -3.77287       -0.32024       -1.02619
C         -5.30717        2.99565        1.74933
C         -5.05972        2.85156        0.38911
C         -3.91190        2.16862        0.00897
C         -3.05168        1.66349        0.95299
C         -3.31091        1.81907        2.29032
C         -4.44892        2.48928        2.71786
H         -6.18777        3.51894        2.07124
H         -3.67834        2.03849       -1.03500
H         -2.60148        1.42829        2.99560
C          3.95960       -3.51598        1.64943
C          3.91581       -3.44486        0.26346
C          3.13820       -2.44856       -0.31393
C          2.40063       -1.58618        0.46129
C          2.46558       -1.67665        1.83219
C          3.25719       -2.62996        2.45571
H          4.56297       -4.27871        2.10447
H          3.10103       -2.34336       -1.38344
H          1.91776       -0.98185        2.44032
C          4.25615        2.42866       -2.58429
C          4.04993        1.14308       -3.06894
C          3.17709        0.31977       -2.36702
C          2.54769        0.77147       -1.23287
C          2.75349        2.04990       -0.78005
C          3.61062        2.90989       -1.45261
H          4.94967        3.07137       -3.09399
H          2.96490       -0.67607       -2.71409
H          2.24511        2.37092        0.11040
Pd         0.43927        0.77186        1.49567
C         -0.82837       -5.54894        0.09296
C         -1.15819       -4.49645        1.16851
C         -2.08597       -5.11371        2.23021
C          0.15668       -4.08140        1.84880
H         -0.31507       -6.40440        0.53182
H         -1.72872       -5.91817       -0.39592
H         -0.17873       -5.12786       -0.67282
H         -3.01735       -5.46183        1.78481
H         -1.60966       -5.96351        2.71887
H         -2.33525       -4.37945        2.99608
H          0.65400       -4.94309        2.29377
H          0.84362       -3.64099        1.12841
H         -0.02740       -3.35700        2.64087
C         -4.72128       -3.62259       -2.77980
C         -5.03536       -2.74593       -1.55508
C         -5.71030       -1.44783       -2.03887
C         -6.01886       -3.48396       -0.62733
H         -5.62952       -3.85825       -3.33419
H         -4.04006       -3.10782       -3.45543
H         -4.25519       -4.56219       -2.48526
H         -5.96050       -0.80279       -1.19697
H         -5.06100       -0.89534       -2.71704
H         -6.63440       -1.66713       -2.57349
H         -6.96413       -3.67593       -1.13473
H         -5.61587       -4.44234       -0.30234
H         -6.22776       -2.88944        0.26190
C         -7.20410        4.14128       -0.08197
C         -5.98614        3.42284       -0.69352
C         -6.49351        2.27542       -1.58650
C         -5.19901        4.43404       -1.54819
H         -6.89298        4.97721        0.54427
H         -7.85122        4.53859       -0.86390
H         -7.79960        3.45769        0.52293
H         -7.03284        1.53689       -0.99378
H         -7.16896        2.64896       -2.35591
H         -5.66889        1.76842       -2.08619
H         -4.35312        3.95955       -2.04454
H         -5.83395        4.87257       -2.31780
H         -4.81159        5.24235       -0.92830
C         -4.83456        4.19369        4.51682
C         -4.77014        2.68703        4.20637
C         -3.69564        2.04905        5.10922
C         -6.12614        2.03113        4.52556
H         -5.61751        4.68434        3.93982
H         -5.04129        4.36588        5.57296
H         -3.88794        4.67654        4.27490
H         -3.93801        2.19440        6.16176
H         -3.62140        0.97622        4.93291
H         -2.71760        2.49573        4.93176
H         -6.10370        0.96747        4.28905
H         -6.37165        2.13707        5.58212
H         -6.93165        2.48496        3.94947
C          4.11988       -5.86994       -0.31676
C          4.69107       -4.46514       -0.58176
C          6.18189       -4.42531       -0.19776
C          4.57173       -4.16356       -2.08889
H          4.22203       -6.14586        0.73225
H          3.06038       -5.90810       -0.57024
H          4.63769       -6.62127       -0.91269
H          6.59029       -3.42593       -0.34704
H          6.33192       -4.69607        0.84653
H          6.75970       -5.12040       -0.80674
H          3.53427       -4.21124       -2.41958
H          4.96516       -3.17414       -2.32098
H          5.13639       -4.88888       -2.67451
C          4.28382       -3.75831        4.49458
C          3.38218       -2.61694        3.98724
C          1.99238       -2.77386        4.63115
C          3.99817       -1.27353        4.42207
H          4.35564       -3.73977        5.58200
H          3.88418       -4.73050        4.20639
H          5.29433       -3.66704        4.09680
H          1.54478       -3.72756        4.35472
H          2.06302       -2.74234        5.71820
H          1.31677       -1.97750        4.32142
H          4.12407       -1.23245        5.50370
H          4.97539       -1.13127        3.96139
H          3.36657       -0.43615        4.12756
C          4.23531       -0.67537       -4.83821
C          4.82781        0.64024       -4.29410
C          6.28878        0.39299       -3.88043
C          4.78177        1.68748       -5.42431
H          4.75733       -0.99022       -5.74169
H          4.32838       -1.48205       -4.11210
H          3.18127       -0.55572       -5.08770
H          6.34279       -0.34772       -3.08263
H          6.87785        0.02838       -4.72177
H          6.75164        1.30993       -3.51647
H          5.26550        2.61778       -5.13055
H          5.29394        1.32004       -6.31349
H          3.75326        1.91501       -5.70159
C          3.50717        5.33379       -2.09079
C          3.86776        4.34341       -0.96845
C          5.35424        4.49290       -0.59825
C          3.01760        4.68406        0.27201
H          2.46094        5.22738       -2.37548
H          3.66561        6.36279       -1.76858
H          4.11451        5.16568       -2.97928
H          5.62839        3.78322        0.18213
H          5.99658        4.30870       -1.45863
H          5.56624        5.49710       -0.23166
H          3.26129        4.02805        1.10741
H          3.19769        5.70909        0.59530
H          1.95368        4.58777        0.05676
H         -2.56178        0.81501       -3.60910
H          0.82087        0.37085       -4.37138
H         -3.21265       -0.65605       -4.32369
H         -1.86076        0.16951       -5.09648
H          1.68862        1.88422       -4.59560
H          0.07344        1.69060       -5.27658
