58
-89.86593697
P          1.69198        0.27909        0.77969
C          2.93622        1.49493        0.34315
C          2.56977        2.81517        0.21704
C          3.51880        3.76015       -0.13067
C          4.82674        3.37395       -0.34895
C          5.18851        2.04719       -0.22160
C          4.23759        1.10453        0.12545
H          4.50237        0.06395        0.22193
H          1.54231        3.09945        0.38269
C          2.31557       -1.38922        0.52544
C          2.46881       -1.82974       -0.76941
C          2.90957       -3.11611       -1.01683
C          3.19801       -3.95574        0.04027
C          3.05277       -3.50904        1.33890
C          2.61222       -2.22068        1.58206
H          2.50234       -1.86449        2.59299
H          2.23679       -1.15822       -1.58051
C          1.25115        0.58458        2.53817
C          0.08987       -0.24757        3.06123
C         -1.27338        0.27680        2.64559
P         -1.70612        0.06313        0.87039
C         -1.97357       -1.67913        0.50155
C         -0.88893       -2.52521        0.53931
C         -1.04443       -3.86673        0.24419
C         -2.29123       -4.35424       -0.09239
C         -3.37646       -3.50152       -0.14278
C         -3.21481       -2.15988        0.15171
H         -4.05033       -1.48333        0.09060
H          0.08693       -2.12594        0.75462
C         -3.18190        1.06038        0.60479
C         -4.33610        0.73945        1.28450
C         -5.47282        1.51023        1.11707
C         -5.44379        2.60558        0.27712
C         -4.28058        2.93477       -0.38965
C         -3.14621        2.16210       -0.21960
H         -2.23272        2.41114       -0.73489
H         -4.34187       -0.10729        1.95276
Pd        -0.05678        0.42537       -0.73124
Cl         1.46575        0.91312       -2.31403
Cl        -1.74391        0.38294       -2.21840
H         -2.07244       -0.21746        3.20363
H         -1.35377        1.34377        2.86273
H          0.20121       -1.29086        2.74270
H          0.13818       -0.28024        4.16093
H          2.16591        0.39804        3.10617
H          1.03590        1.64990        2.63974
H          3.23571        4.79468       -0.23483
H          6.20820        1.74527       -0.39576
H          3.02448       -3.46119       -2.03115
H          3.28208       -4.16387        2.16352
H         -0.19097       -4.52425        0.26619
H         -4.34769       -3.87912       -0.41749
H         -6.37808        1.25694        1.64401
H         -4.25565        3.79100       -1.04352
H          5.56602        4.10909       -0.62235
H          3.54011       -4.96028       -0.14839
H         -2.41577       -5.39912       -0.32564
H         -6.32893        3.20611        0.14432
