105
-153.07277750
Cl        -0.07004        1.90384        3.05722
Pd        -0.62559        1.11793        1.00978
P         -1.27726        0.51178       -1.14687
N         -1.02310       -1.06826       -1.86659
C          0.03802       -1.94695       -1.62142
C          0.31705       -2.45576       -0.32534
C          1.36046       -3.38800       -0.15723
C          1.61318       -3.95878        1.21793
C          2.50778       -5.20787        1.23523
C          3.71350       -5.03137        0.30792
C          3.25531       -4.78291       -1.13709
C          2.11832       -3.79884       -1.25700
C          1.80824       -3.30848       -2.51921
C          0.78721       -2.41313       -2.70198
H          0.56113       -2.04469       -3.68729
H          2.38718       -3.64203       -3.36379
H          4.09607       -4.42660       -1.74605
H          4.31391       -4.18022        0.65249
H          2.83479       -5.44035        2.25857
H          2.06498       -3.17615        1.83806
C         -0.60860       -2.18998        0.80078
C         -0.12697       -1.59056        1.99783
C         -0.99539       -1.49551        3.09034
C         -2.29247       -1.93033        3.00140
C         -2.78346       -2.51146        1.83854
C         -4.21546       -2.99423        1.83862
C         -4.71473       -3.54474        0.49110
C         -3.60791       -4.30816       -0.24155
C         -2.40118       -3.39354       -0.49381
C         -1.93358       -2.66358        0.74095
H         -1.56698       -3.97572       -0.90501
H         -3.98195       -4.73441       -1.18322
H         -5.05718       -2.71703       -0.14181
H         -4.85986       -2.17092        2.17234
H         -2.95120       -1.82485        3.84679
H         -0.64273       -1.02872        3.99326
N          1.14688       -1.01044        2.08589
P          1.54703        0.19619        0.86153
C          2.67298       -0.37793       -0.40084
C          2.52278        0.08043       -1.68497
C          3.42946       -0.29631       -2.65841
C          4.50300       -1.11795       -2.34090
C          4.64729       -1.55379       -1.03005
C          3.73647       -1.17724       -0.05908
H          3.84818       -1.50047        0.96363
H          5.47581       -2.19210       -0.77500
C          5.45532       -1.56067       -3.39606
H          3.30455        0.04303       -3.67240
H          1.69434        0.72630       -1.91738
C          2.37071        1.62855        1.56793
C          3.15019        1.50723        2.69279
C          3.78710        2.62173        3.20788
C          3.64669        3.86155        2.59857
C          2.87335        3.95729        1.44947
C          2.23774        2.84210        0.93531
H          1.63495        2.91332        0.04348
H          2.77060        4.91053        0.95973
C          4.34805        5.05676        3.14344
H          4.39891        2.53476        4.08951
H          3.26572        0.54317        3.16053
H          1.34394       -0.55655        2.96836
H         -1.32948       -0.95991       -2.82488
C         -0.49666        1.80814       -2.11145
C         -0.43440        3.08152       -1.59502
C          0.20162        4.08249       -2.30538
C          0.76534        3.81846       -3.54609
C          0.68114        2.53037       -4.05730
C          0.04508        1.53082       -3.34431
H         -0.00724        0.52863       -3.73568
H          1.12396        2.31294       -5.01429
C          1.48109        4.88816       -4.29496
H          0.26443        5.07735       -1.89846
H         -0.89194        3.28946       -0.64049
C         -3.05204        0.77121       -1.19905
C         -3.59388        1.73462       -2.01667
C         -4.96371        1.92249       -2.04462
C         -5.79886        1.15172       -1.24723
C         -5.23334        0.17723       -0.43675
C         -3.86346       -0.01146       -0.41598
H         -3.41556       -0.74967        0.22773
H         -5.87247       -0.42513        0.18567
C         -7.27531        1.34107       -1.28671
H         -5.39279        2.67407       -2.68505
H         -2.94458        2.33861       -2.62932
Cl        -2.67154        1.95447        1.46290
H          2.94460       -5.73030       -1.59353
H          1.92407       -6.07763        0.90852
H          4.38001       -5.90372        0.36368
H          0.64786       -4.18387        1.68873
H         -3.29309       -5.16520        0.36695
H         -2.65278       -2.65525       -1.26363
H         -4.31411       -3.76944        2.60799
H         -5.59697       -4.18437        0.63472
H          5.56917       -0.79853       -4.16822
H          6.44322       -1.75838       -2.97773
H          5.10345       -2.47544       -3.87509
H          3.81461        5.97477        2.89301
H          4.42471        5.00558        4.23041
H          5.35765        5.13233        2.73736
H          1.02620        5.86376       -4.11784
H          2.52614        4.94292       -3.98695
H          1.45617        4.70192       -5.36955
H         -7.53370        2.37203       -1.53241
H         -7.72941        0.69190       -2.03660
H         -7.72726        1.10855       -0.32144
