58
-89.86626295
P          1.60411        0.22819        0.79690
C          1.64809        1.95588        0.30751
C          1.68891        2.96373        1.24412
C          1.70886        4.28343        0.82990
C          1.69272        4.58392       -0.51810
C          1.66417        3.56929       -1.45408
C          1.64539        2.25191       -1.03617
H          1.63338        1.44299       -1.74902
H          1.70569        2.71857        2.29353
C          3.21025       -0.54422        0.60212
C          4.33500        0.24832        0.56820
C          5.58146       -0.33254        0.41678
C          5.69064       -1.70424        0.30023
C          4.55894       -2.49500        0.33461
C          3.31390       -1.91150        0.48715
H          2.42201       -2.51712        0.50305
H          4.23170        1.31825        0.65530
C          1.01962        0.00473        2.53239
C          0.24464       -1.29739        2.72226
C         -1.25590       -1.18145        2.48513
P         -1.74358       -0.59196        0.80436
C         -3.29176       -1.35249        0.31487
C         -4.40479       -0.57319        0.09550
C         -5.59460       -1.16601       -0.28702
C         -5.65935       -2.53612       -0.44779
C         -4.53943       -3.31364       -0.22727
C         -3.35093       -2.71786        0.15636
H         -2.46435       -3.31011        0.32089
H         -4.33740        0.49540        0.22092
C         -1.82615        1.20280        0.65945
C         -1.91301        1.72891       -0.60995
C         -1.92895        3.09935       -0.79247
C         -1.85963        3.93649        0.30266
C         -1.78028        3.40611        1.57499
C         -1.76474        2.03507        1.75357
H         -1.71433        1.61845        2.74522
H         -1.95173        1.05768       -1.45399
Pd         0.07845       -0.77173       -0.61471
Cl         1.70113       -0.86511       -2.17550
Cl        -1.39445       -1.60580       -2.10186
H         -1.74333       -2.15025        2.62031
H         -1.71396       -0.50775        3.21061
H          0.66441       -2.06211        2.05483
H          0.41489       -1.68443        3.73900
H          1.91993        0.03583        3.15167
H          0.41198        0.86342        2.81803
H          1.73386        5.07609        1.55951
H          1.65584        3.80158       -2.50625
H          6.46399        0.28512        0.38710
H          4.64376       -3.56493        0.23811
H         -6.46756       -0.55881       -0.46176
H         -4.58846       -4.38215       -0.35809
H         -1.98642        3.51046       -1.78682
H         -1.72659        4.06061        2.42945
H          1.70468        5.61240       -0.84016
H          6.66062       -2.15835        0.17917
H         -6.58485       -2.99924       -0.74891
H         -1.86459        5.00534        0.16415
