100
-131.98311535
C         -1.65419        3.76502       -1.46330
C         -2.36938        2.48415       -1.46160
C         -0.26028        3.49776       -1.53812
C         -0.04466        2.02730       -1.60233
C          1.12885        1.44700       -2.31310
C         -1.41543        1.41611       -1.55952
C         -1.81364        0.00531       -1.96589
C         -0.84197       -0.72095       -2.87170
Cl         1.01477       -0.53592        2.78793
Cl        -1.91338       -1.64717        2.32985
C          3.24937        0.43682       -3.83803
C          2.50952        1.50174       -4.31307
C          2.94749       -0.11343       -2.60074
C          1.47543        2.00349       -3.56356
C          1.89983        0.36147       -1.84740
H         -3.45309        2.36942       -1.52119
H          0.52515        4.24979       -1.64418
H         -1.26982       -1.64507       -3.26775
H         -0.54905       -0.10045       -3.72209
H          0.06015       -0.99271       -2.32483
H          4.06982        0.04629       -4.41760
H          2.74581        1.93855       -5.26988
H          3.56705       -0.90809       -2.21992
H          0.89254        2.82793       -3.93664
H         -2.11785        4.75501       -1.46766
P          1.75442       -0.30812       -0.17206
H         -2.77849        0.07905       -2.48344
P         -2.16598       -1.00684       -0.47033
H         -3.47630       -3.01712       -0.29671
C         -1.67049       -3.75389       -1.18727
C         -2.73752       -2.67443       -1.02200
C         -1.21424       -4.29335        0.17059
H         -3.24591        0.79623        0.62861
C         -4.91346       -0.04428       -0.43402
C         -3.60683       -0.19418        0.36118
H         -4.65124        0.25111       -1.46443
C         -5.71909       -1.34428       -0.50158
H          3.60739       -1.82043       -0.42481
H          2.53604        0.77615        1.85072
C          3.53841        3.25918        1.18142
C          2.71176        2.28675        0.32082
C          2.86552        0.83954        0.80856
C          4.35024        0.44111        0.75629
C          5.21482        1.40005        1.60124
C          5.02662        2.86358        1.15756
H          3.17010        3.23233        2.21444
H          3.39951        4.29601        0.84449
H          3.06278        2.34322       -0.71701
H          1.65541        2.57254        0.28033
H          4.49112       -0.59353        1.09137
H          4.68503        0.46344       -0.28752
H          4.93353        1.30304        2.65729
H          6.27428        1.11167        1.55302
H          5.41934        2.98815        0.14053
H          5.62037        3.54180        1.78669
C          2.70698       -4.29823       -1.13837
C          1.93207       -2.96545       -1.10011
C          2.57020       -1.98635       -0.11227
C          2.60291       -2.60964        1.29125
C          3.40095       -3.92775        1.28478
C          2.80831       -4.92361        0.26804
H          3.71574       -4.11939       -1.53062
H          2.23750       -4.99828       -1.84367
H          0.90865       -3.15134       -0.76720
H          1.84631       -2.51980       -2.09998
H          3.00021       -1.89976        2.02808
H          1.57563       -2.81339        1.61425
H          4.44552       -3.71821        1.02312
H          3.43261       -4.36772        2.29137
H          1.81149       -5.23319        0.60397
H          3.40431       -5.84678        0.23853
H         -0.81392       -3.29047       -1.70359
C         -2.18242       -4.89797       -2.06805
H         -3.80232       -0.71892        1.29603
C         -5.77386        1.07165        0.17001
H         -3.26221       -2.51533       -1.96594
H         -0.82260       -3.50647        0.81373
H         -0.44366       -5.05676        0.05872
H         -2.05005       -4.75232        0.69932
H         -1.41971       -5.66560       -2.20870
H         -3.04975       -5.37536       -1.61096
H         -2.48463       -4.54156       -3.05420
H         -5.90004       -1.73848        0.49888
H         -6.69206       -1.18032       -0.96784
H         -5.21588       -2.11717       -1.07928
H         -6.04093        0.83364        1.20010
H         -5.24811        2.02727        0.17959
H         -6.70161        1.20880       -0.38764
Fe        -1.07721        2.63586        0.10014
C         -2.43886        3.04106        1.60430
C         -1.57795        4.17966        1.34191
C         -0.20144        3.77733        1.56237
C         -0.21436        2.37491        1.92849
C         -1.58932        1.92315        1.96243
H         -3.53082        3.04445        1.58663
H         -1.91416        5.18889        1.09163
H          0.67608        4.42542        1.50148
H          0.63983        1.77731        2.24671
H         -1.91190        0.93061        2.28575
Pd        -0.27592       -0.86453        0.96243
