111
-148.55230579
P         -2.62044        1.91508        0.20927
P          0.19479        0.48294        0.45651
C         -1.75175        1.89238        1.80429
C         -0.50786        1.30639        1.89827
C         -3.68923        3.42124        0.06449
C         -3.39147        4.19671       -1.19954
C         -2.33727        2.44170        2.92757
H         -3.31861        2.88110        2.85706
C         -1.67000        2.40938        4.13993
H         -2.12709        2.83938        5.01620
C         -0.42285        1.82198        4.22979
H          0.09437        1.79177        5.17466
C          0.15704        1.26208        3.10595
H          1.11959        0.77844        3.16399
Pd        -1.01787        1.31009       -1.34310
Cl        -2.43044        1.81486       -3.00349
Cl         0.66674        0.59850       -2.65326
C         -5.11661        2.83632        0.11723
C         -3.89490        0.58187        0.05341
H         -3.99327        5.10632       -1.26416
H         -2.33823        4.48183       -1.25299
H         -3.61497        3.59395       -2.08063
H         -5.79157        3.46174       -0.48517
H         -5.50484        2.88792        1.14509
H         -3.55588       -0.09244       -0.74533
C         -5.15600        1.36087       -0.37278
C         -4.04742       -0.17504        1.35463
H         -3.48186        4.04425        0.94463
H         -6.05129        0.84867        0.00900
H         -5.24959        1.34561       -1.46875
H         -4.36106        0.49635        2.15616
H         -4.79445       -0.96828        1.27337
H         -3.10304       -0.63068        1.65898
C         -1.48793       -3.74783        0.36418
C         -1.01894       -3.14814       -0.83220
C         -0.50074       -1.86808       -0.76018
C         -0.37931       -1.21588        0.43797
C         -0.72504       -1.83535        1.61015
C         -1.24499       -3.11907        1.61266
O         -2.23961       -4.95146        0.30812
C         -1.11890       -3.83201       -2.20378
H         -0.20219       -1.34466       -1.65115
H         -0.60579       -1.28906        2.52924
C         -1.57356       -3.78951        2.95585
C          4.71870        0.80966        0.03479
C          4.04439       -0.35338       -0.41574
C          2.66915       -0.41141       -0.26669
C          1.97768        0.59703        0.35126
C          2.63589        1.68070        0.87191
C          4.01349        1.79351        0.77485
O          6.08690        1.00879       -0.28995
C          4.76638       -1.51989       -1.10739
H          2.11038       -1.24367       -0.65730
H          2.05340        2.44781        1.35202
C          4.71544        2.98303        1.44921
C         -1.00396       -5.36132       -2.07317
C         -2.45557       -3.45233       -2.85935
C          0.03156       -3.37116       -3.12809
C         -3.00833       -3.42893        3.37041
C         -1.41600       -5.31832        2.86586
C         -0.60556       -3.30179        4.05776
C         -3.64215       -4.74929        0.18587
H         -1.82930       -5.77397       -1.49852
H         -1.01237       -5.84000       -3.05208
H         -0.07716       -5.63449       -1.56972
H         -2.52981       -2.37213       -2.98404
H         -2.55374       -3.91316       -3.84183
H         -3.29806       -3.77330       -2.25129
H          0.99733       -3.51199       -2.64419
H          0.03560       -3.94382       -4.05516
H         -0.06480       -2.32178       -3.40231
H         -3.11585       -2.35147        3.49176
H         -3.72844       -3.75167        2.62230
H         -3.27115       -3.90112        4.31667
H         -2.12648       -5.74999        2.16539
H         -0.41365       -5.58150        2.52970
H         -1.58298       -5.78739        3.83518
H          0.43100       -3.42974        3.74696
H         -0.76430       -2.25178        4.29901
H         -0.75131       -3.86657        4.97830
H         -4.15363       -5.21405        1.02862
H         -3.87272       -3.68334        0.16326
H         -4.00097       -5.21756       -0.73052
C          6.29365        1.71157       -1.50894
C          6.20116       -1.68372       -0.57455
C          4.03172       -2.85307       -0.83739
C          4.78722       -1.27003       -2.62320
C          3.94518        3.42118        2.71599
C          6.13835        2.60565        1.90044
C          4.76683        4.16633        0.47124
H          6.81058       -0.81220       -0.79955
H          6.19582       -1.81720        0.50670
H          6.68841       -2.55010       -1.02118
H          4.60737       -3.69616       -1.21870
H          3.88351       -3.00466        0.23145
H          3.05939       -2.88436       -1.32600
H          5.27998       -2.08804       -3.14794
H          3.77299       -1.18060       -3.01195
H          5.31438       -0.34972       -2.86327
H          2.97756        3.85613        2.47061
H          3.78161        2.57438        3.38211
H          4.50463        4.17691        3.26689
H          6.11439        1.73864        2.55978
H          6.77239        2.36136        1.05186
H          6.61018        3.42781        2.43794
H          5.24731        5.03060        0.92911
H          3.76203        4.45955        0.16811
H          5.32206        3.91075       -0.42806
H          6.85832        1.08690       -2.20081
H          5.33717        1.97969       -1.95959
H          6.87167        2.61533       -1.31665
