111
-148.55520736
P         -1.75487        2.74154        0.40572
P         -0.43911       -0.13047        0.54135
C         -1.39794        1.98655        2.01713
C         -0.89551        0.70357        2.07444
C         -0.73476        4.25788        0.12758
C          0.21712        4.05052       -1.03192
C         -1.60796        2.69558        3.18246
H         -1.97064        3.70914        3.12991
C         -1.33395        2.10766        4.40531
H         -1.50112        2.65948        5.31591
C         -0.84198        0.81752        4.46017
H         -0.62354        0.36217        5.41208
C         -0.61249        0.11657        3.28987
H         -0.19774       -0.87868        3.31341
Pd        -1.54671        1.02623       -1.12562
Cl        -2.55507        2.37109       -2.61005
Cl        -1.21883       -0.72861       -2.48696
C         -1.78715        5.35975       -0.11268
C         -3.45443        3.46899        0.30750
H         -0.33482        3.82121       -1.94565
H          0.81710        4.94354       -1.22235
H          0.89820        3.21705       -0.84722
H         -1.87691        5.52860       -1.19452
H         -1.44128        6.31712        0.30536
H         -3.81271        3.25558       -0.70821
C         -3.18084        4.97576        0.46197
C         -4.39963        2.87963        1.33294
H         -0.18958        4.43540        1.06383
H         -3.22658        5.23822        1.52785
H         -3.97965        5.56037       -0.01964
H         -5.40190        3.30421        1.24093
H         -4.47889        1.79586        1.22071
H         -4.05298        3.07829        2.34755
C         -0.62175       -4.67547        0.76259
C         -1.66862       -3.96021        0.12672
C         -1.60744       -2.57637        0.11829
C         -0.52322       -1.91445        0.63117
C          0.54199       -2.60464        1.14881
C          0.53924       -3.98893        1.20058
O         -0.74546       -6.07305        0.98434
C         -2.85527       -4.65958       -0.55567
H         -2.40338       -1.99182       -0.30988
H          1.38572       -2.04049        1.50796
C          1.77721       -4.72340        1.73888
C          3.66661        1.35059       -0.75450
C          3.04597        0.28504       -1.45579
C          1.79312       -0.13130       -1.03912
C          1.20442        0.40675        0.07357
C          1.84188        1.36812        0.81327
C          3.09238        1.83670        0.44821
O          4.83958        1.95850       -1.27590
C          3.68366       -0.39462       -2.67688
H          1.23680       -0.86076       -1.60191
H          1.33976        1.76245        1.67866
C          3.79357        2.87544        1.33805
C         -2.43617       -6.02256       -1.13627
C         -3.99315       -4.84286        0.45947
C         -3.37854       -3.81120       -1.73784
C          1.62227       -4.94017        3.25161
C          1.97055       -6.07424        1.02605
C          3.05810       -3.89499        1.48861
C         -1.38327       -6.41290        2.20887
H         -2.12829       -6.71039       -0.35278
H         -3.25916       -6.48773       -1.67825
H         -1.59999       -5.90480       -1.82471
H         -4.85318       -5.32782       -0.00166
H         -3.67563       -5.45221        1.30220
H         -4.31865       -3.87951        0.85130
H         -4.12493       -4.36185       -2.30976
H         -3.85208       -2.89192       -1.39686
H         -2.56617       -3.54651       -2.41422
H          2.49284       -5.44929        3.66439
H          1.51179       -3.98689        3.76803
H          0.74441       -5.54129        3.47554
H          2.03661       -5.93281       -0.05222
H          2.88318       -6.56695        1.36044
H          1.14134       -6.74909        1.22384
H          3.94692       -4.46794        1.75193
H          3.13983       -3.61517        0.43878
H          3.07471       -2.98647        2.08884
H         -0.71534       -7.03131        2.80828
H         -1.64329       -5.51187        2.76583
H         -2.28623       -6.98781        2.00435
C          4.58514        3.03581       -2.16889
C          5.21978       -0.39152       -2.57792
C          3.24289       -1.87400       -2.76564
C          3.23009        0.32972       -3.95338
C          3.35541        2.71703        2.81197
C          5.32135        2.69048        1.29940
C          3.42089        4.29036        0.87035
H          5.66737       -0.93002       -3.41288
H          5.61698        0.62020       -2.58875
H          5.54522       -0.86771       -1.65359
H          3.78845       -2.39375       -3.55286
H          3.43553       -2.39227       -1.82686
H          2.18296       -1.96718       -2.99696
H          3.53401        1.37372       -3.94377
H          3.65676       -0.13772       -4.84038
H          2.14454        0.30212       -4.04593
H          3.94479        3.36325        3.46207
H          2.31047        2.98977        2.95344
H          3.49119        1.68966        3.14886
H          5.81747        3.38314        1.97879
H          5.59260        1.67635        1.59082
H          5.71674        2.86812        0.30227
H          3.92065        5.04570        1.47624
H          2.34693        4.45259        0.95186
H          3.70328        4.45132       -0.16704
H          5.06954        3.93895       -1.79798
H          5.00106        2.80558       -3.14954
H          3.51218        3.20918       -2.26103
