111
-148.55191149
P         -2.19616        2.21235        1.35550
P          0.13293        0.23197        0.47702
C         -1.11590        1.47846        2.60804
C         -0.13672        0.58813        2.22604
C         -2.36951        4.03504        1.60576
C         -2.04230        4.77187        0.32526
C         -1.28995        1.78229        3.94300
H         -2.04524        2.49478        4.23227
C         -0.49463        1.17258        4.89779
H         -0.63056        1.40805        5.94071
C          0.46574        0.25590        4.51569
H          1.07844       -0.22713        5.25899
C          0.64297       -0.03916        3.17585
H          1.38273       -0.75967        2.86292
Pd        -1.51608        1.38977       -0.69059
Cl        -3.36143        2.29131       -1.59453
Cl        -0.78847        0.42320       -2.58291
C         -3.83563        4.18949        2.06048
C         -3.96772        1.68751        1.51550
H         -1.02269        4.56016       -0.00631
H         -2.71802        4.46613       -0.47581
H         -2.14155        5.85321        0.44736
H         -4.22454        5.16061        1.72098
H         -3.88621        4.21821        3.15886
H         -4.20370        1.11670        0.60715
C         -4.72722        3.02967        1.53480
C         -4.19643        0.83466        2.74584
H         -1.67063        4.31755        2.40484
H         -5.63540        2.92978        2.14688
H         -5.07808        3.27315        0.52113
H         -5.22795        0.47878        2.80047
H         -3.53690       -0.03600        2.75680
H         -4.00024        1.40660        3.65380
C         -1.17761       -4.04894       -0.33551
C         -2.11909       -3.07504        0.08581
C         -1.66173       -1.79581        0.35640
C         -0.35224       -1.45472        0.13860
C          0.53743       -2.36093       -0.37500
C          0.14785       -3.65938       -0.65745
O         -1.55076       -5.41780       -0.40003
C         -3.61437       -3.38509        0.25670
H         -2.32699       -1.04144        0.74056
H          1.54803       -2.03812       -0.55225
C          1.16267       -4.62547       -1.28846
C          4.43846        0.98088       -0.85565
C          4.08078        1.19317        0.49980
C          2.76996        0.95609        0.87788
C          1.81834        0.58931       -0.03911
C          2.14079        0.49713       -1.36795
C          3.43023        0.72102       -1.81757
O          5.80483        0.99933       -1.24340
C          5.09759        1.64010        1.56225
H          2.47613        1.05459        1.90663
H          1.35397        0.25634       -2.05923
C          3.71964        0.66587       -3.32632
C         -4.46543       -2.12979       -0.04298
C         -4.07089       -4.47861       -0.72611
C         -3.88065       -3.82702        1.70334
C          1.93506       -5.35022       -0.17623
C          0.46114       -5.64840       -2.20048
C          2.17074       -3.85443       -2.17037
C         -1.35696       -6.12727        0.81690
H         -5.52684       -2.37580       -0.06099
H         -4.32937       -1.36201        0.71601
H         -4.20299       -1.70494       -1.01158
H         -3.84319       -4.19066       -1.75189
H         -3.57301       -5.42430       -0.52721
H         -5.14452       -4.64948       -0.65166
H         -4.93775       -4.04192        1.85763
H         -3.31558       -4.72240        1.95179
H         -3.58895       -3.04560        2.40475
H          1.26473       -5.92649        0.45716
H          2.67335       -6.03361       -0.59503
H          2.45818       -4.63518        0.45834
H         -0.12842       -5.14076       -2.96318
H          1.18627       -6.28886       -2.70194
H         -0.20858       -6.29088       -1.63417
H          2.80995       -4.54355       -2.72184
H          1.64848       -3.22964       -2.89445
H          2.82487       -3.21925       -1.57483
H         -0.94105       -5.46790        1.57974
H         -2.30970       -6.52774        1.16285
H         -0.67705       -6.96225        0.64845
C          6.44342       -0.26971       -1.17996
C          6.17406        2.55442        0.94946
C          4.40152        2.45110        2.67923
C          5.75120        0.40102        2.19257
C          2.47357        1.08933       -4.13749
C          4.85351        1.63498       -3.70739
C          4.09464       -0.76968       -3.72301
H          6.85714        2.92293        1.71438
H          6.76694        2.02681        0.20649
H          5.71515        3.41379        0.46176
H          3.81925        3.27031        2.25815
H          3.73698        1.82840        3.27643
H          5.13594        2.87894        3.36130
H          4.99898       -0.23832        2.65422
H          6.27525       -0.19106        1.44622
H          6.46940        0.68650        2.96079
H          1.66918        0.36039       -4.05183
H          2.09875        2.05433       -3.79765
H          2.71281        1.17731       -5.19693
H          4.61335        2.64951       -3.39114
H          5.79189        1.35241       -3.23674
H          5.01531        1.64471       -4.78498
H          3.27695       -1.45434       -3.50223
H          4.97108       -1.11428       -3.17972
H          4.31081       -0.83653       -4.78894
H          6.82100       -0.53865       -2.16631
H          7.28941       -0.21916       -0.49473
H          5.74273       -1.03232       -0.83753
