59
-75.80295310
Cl         1.72279        0.18328        2.34808
P          1.57192       -0.00227       -0.87965
P         -1.60623       -0.08531       -0.73355
C          0.55139       -0.01641       -2.42359
H          0.31518        1.01258       -2.69933
H          1.15067       -0.43669       -3.23732
C         -0.70715       -0.80126       -2.17799
H         -0.47673       -1.84394       -1.94436
H         -1.37535       -0.79719       -3.04451
C          2.91701       -1.27598       -0.99516
H          2.79466       -1.78894       -1.95740
C          2.60123        1.51787       -0.58007
H          2.18301        2.02484        0.29878
C         -3.18354       -0.99345       -0.37653
H         -3.39287       -0.79522        0.68226
C         -2.38737        1.52640       -1.21252
H         -1.72752        2.04100       -1.92053
C          4.20653       -0.43218       -0.97704
H          5.01466       -0.99967       -0.49295
H          4.54947       -0.24909       -2.00607
C          3.98861        0.92588       -0.26100
H          4.77524        1.64263       -0.53859
H          4.08963        0.78216        0.82510
C         -4.22381       -0.28107       -1.26895
H         -4.54548       -0.96947       -2.06314
H         -5.13329       -0.07645       -0.68485
C         -3.68166        1.04036       -1.89712
H         -4.44591        1.83060       -1.85419
H         -3.48698        0.88357       -2.96937
C          2.83665       -2.28877        0.14153
H          2.77515       -1.74412        1.09273
H          3.77697       -2.85526        0.19285
C          2.60718        2.47445       -1.77454
H          3.52745        3.07475       -1.75258
H          2.67386        1.88515       -2.69845
C         -3.08406       -2.49760       -0.60466
H         -4.09583       -2.92595       -0.63037
H         -2.66949       -2.67997       -1.60426
C         -2.64900        2.40270        0.01287
H         -3.43142        3.13565       -0.22930
H         -3.07961        1.77422        0.80381
C          1.66658       -3.24696       -0.00320
H          1.76058       -3.85439       -0.90547
H          0.72773       -2.70187       -0.08485
H          1.58235       -3.92757        0.84704
C          1.40347        3.40410       -1.80627
H          1.39722        4.06663       -0.93848
H          0.46684        2.84880       -1.78543
H          1.39369        4.03394       -2.69876
C         -2.25657       -3.20011        0.45966
H         -2.71729       -3.10378        1.44471
H         -1.26238       -2.76240        0.53660
H         -2.13626       -4.26610        0.25381
C         -1.41587        3.13038        0.52708
H         -1.03763        3.83591       -0.21439
H         -1.62591        3.69703        1.43702
H         -0.60587        2.43877        0.75655
Cl        -1.53684       -0.29537        2.43851
Pd         0.06121       -0.11501        0.87467
