58
-89.86954696
P          1.68074        0.33368        0.76395
C          3.08721        1.31663        0.23972
C          4.24040        0.69806       -0.18587
C          5.31673        1.46114       -0.60112
C          5.22795        2.83924       -0.58813
C          4.06759        3.45521       -0.16210
C          2.99273        2.68925        0.25331
H          2.07615        3.15550        0.57921
H          4.29150       -0.37870       -0.19717
C          1.94089       -1.40885        0.39930
C          1.87955       -1.80264       -0.91850
C          2.04361       -3.13409       -1.25183
C          2.27518       -4.06457       -0.25873
C          2.35406       -3.66431        1.06064
C          2.19106       -2.33088        1.38997
H          2.27424       -2.00858        2.41465
H          1.70565       -1.05813       -1.67965
C          1.38424        0.66139        2.54569
C          0.21681       -0.10888        3.13837
C         -1.14819        0.40045        2.70764
P         -1.60159        0.01514        0.96902
C         -1.54897       -1.74466        0.59709
C         -1.46334       -2.69692        1.58701
C         -1.39381       -4.03567        1.24653
C         -1.42016       -4.41287       -0.08170
C         -1.52582       -3.45611       -1.07124
C         -1.59326       -2.11893       -0.72715
H         -1.68275       -1.35545       -1.48414
H         -1.46698       -2.39743        2.62186
C         -3.24127        0.68205        0.67227
C         -4.28400       -0.16154        0.36440
C         -5.54284        0.35969        0.12606
C         -5.74651        1.72376        0.19654
C         -4.69637        2.56646        0.50373
C         -3.43835        2.04200        0.74229
H         -2.60586        2.68825        0.97251
H         -4.10777       -1.22343        0.30640
Pd        -0.10862        0.79106       -0.62880
Cl         1.33061        1.34914       -2.26137
Cl        -1.88224        1.16010       -1.96093
H         -1.94417       -0.02857        3.32137
H         -1.20985        1.48361        2.82715
H          0.30981       -1.16965        2.87800
H          0.28347       -0.07482        4.23709
H          2.32139        0.41676        3.05184
H          1.23622        1.73661        2.66100
H          6.22046        0.98025       -0.93768
H          3.99646        4.53045       -0.15725
H          1.98669       -3.44306       -2.28254
H          2.54238       -4.39042        1.83434
H         -1.31855       -4.78389        2.01842
H         -1.55139       -3.74824       -2.10810
H         -6.36110       -0.29774       -0.11786
H         -4.85411        3.63131        0.55307
H          6.06460        3.43522       -0.91453
H          2.39823       -5.10444       -0.51400
H         -1.36158       -5.45606       -0.34620
H         -6.72612        2.13179        0.00787
