87
-129.17878845
P         -1.56366       -0.29602       -0.38527
P          1.67437        0.32905        0.36155
C         -1.14651        1.00100       -1.55518
C          1.53138       -0.71100       -1.11658
C         -0.02651        0.81959       -2.35533
C          0.30769        1.81495       -3.29518
C         -0.50662        2.92995       -3.41011
C         -1.62115        3.08514       -2.61140
C         -1.93936        2.11517       -1.68107
C          2.20304       -1.90626       -1.00006
C          2.12922       -2.85317       -2.00355
C          1.35950       -2.60321       -3.11810
C          0.65886       -1.41682       -3.25014
C          0.75595       -0.43867       -2.24181
Cl         0.93748       -0.50753        3.38433
Cl        -1.62273       -2.20555        2.22411
H         -2.24072        3.96122       -2.71113
H         -2.81364        2.22090       -1.06072
H          2.77918       -2.10187       -0.10758
H          2.65922       -3.78650       -1.90730
H         -0.25552        3.68550       -4.13506
H          1.28354       -3.34355       -3.89643
C         -2.58047       -4.03928       -2.74992
C         -1.68080       -4.13111       -1.69682
C         -1.39099       -2.98258       -0.97086
C         -1.98869       -1.78584       -1.28937
C         -2.88551       -1.70399       -2.32859
C         -3.18503       -2.83727       -3.06195
H         -2.80234       -4.92043       -3.32750
C         -0.99922       -5.41502       -1.37920
H         -0.68773       -3.02764       -0.15674
H         -3.33440       -0.75274       -2.56841
H         -3.88261       -2.77954       -3.88133
C         -5.08661        1.02156        2.18686
C         -5.16550       -0.15518        1.46835
C         -4.10364       -0.55363        0.67846
C         -2.97296        0.22589        0.61222
C         -2.89112        1.39506        1.33125
C         -3.94986        1.81593        2.12518
H         -5.91021        1.33013        2.80788
H         -6.05116       -0.76630        1.52781
H         -4.14639       -1.47621        0.12295
H         -1.99671        1.99016        1.27641
C         -3.83996        3.07495        2.91116
C          6.05330        0.25714        1.60118
C          5.69906        0.56041        0.30117
C          4.36555        0.57580       -0.06495
C          3.39926        0.28914        0.87139
C          3.75191       -0.01121        2.16498
C          5.08536       -0.04045        2.55023
H          7.09041        0.25053        1.89056
H          6.46012        0.78622       -0.42767
H          4.07249        0.80622       -1.07735
H          2.98112       -0.22564        2.88315
C          5.46103       -0.34207        3.95850
C          0.37131        4.68516        0.29602
C         -0.03889        3.84917        1.31527
C          0.37188        2.53030        1.32759
C          1.16453        2.05175        0.31000
C          1.60456        2.89083       -0.68611
C          1.20812        4.22349       -0.71028
H          0.05454        5.71413        0.28087
H         -0.66454        4.22754        2.10709
H          0.11428        1.87867        2.14776
H          2.25322        2.50637       -1.45460
C          1.66161        5.14034       -1.79142
Pd        -0.15049       -0.70863        1.43860
C          1.50908        1.68783       -4.16525
C         -0.19569       -1.21410       -4.45351
H          2.06345        2.62651       -4.20448
H          2.18935        0.91960       -3.79549
H          1.22467        1.42450       -5.18470
H         -0.91604       -0.40952       -4.30261
H          0.41141       -0.96640       -5.32500
H         -0.76094       -2.11824       -4.68415
H         -0.77400       -5.48573       -0.31405
H         -1.62383       -6.26939       -1.64356
H         -0.06010       -5.50005       -1.92782
H         -3.46381        3.88960        2.29044
H         -4.80787        3.38089        3.31045
H         -3.15506        2.94750        3.75071
H          5.53051        0.57487        4.54529
H          4.72122       -0.98890        4.43238
H          6.42553       -0.84932        4.00893
H          0.81183        5.51635       -2.36291
H          2.19442        5.99699       -1.37626
H          2.33376        4.63469       -2.48592
