115
-277.93517960
P         -1.76287       -0.17692       -0.04027
P          1.80747       -0.90890        0.45156
C         -1.58276        1.58925       -0.39651
C         -2.69596        2.38818       -0.25381
H         -3.66261        1.93914       -0.08436
C         -2.55336        3.75964       -0.22106
H         -3.39380        4.38923        0.02279
C         -1.30126        4.33647       -0.36219
C         -0.21529        3.53003       -0.66279
H          0.75136        3.99654       -0.79686
C         -0.35637        2.15689       -0.67700
H          0.50737        1.53635       -0.84476
C         -3.24733       -0.82759       -0.82490
C         -3.77736       -2.00178       -0.34251
H         -3.30528       -2.49883        0.48931
C         -4.91820       -2.52822       -0.91359
H         -5.36301       -3.43600       -0.53783
C         -5.52568       -1.88657       -1.97443
C         -4.98404       -0.70812       -2.45331
H         -5.46996       -0.20810       -3.27587
C         -3.84545       -0.18030       -1.88098
H         -3.41214        0.72732       -2.26953
C         -1.71971       -0.68859        1.71373
C         -1.09553       -1.91199        1.88736
H         -0.66694       -2.41000        1.03347
C         -0.85537       -2.43380        3.15906
C         -1.47398       -1.81067        4.23632
H         -1.33636       -2.21135        5.22672
C         -2.11524       -0.59952        4.07056
H         -2.47806       -0.07212        4.93638
C         -2.14735        0.03852        2.83098
C          1.38055       -0.37017        2.14738
C          0.72086        0.84209        2.13256
H          0.48376        1.29431        1.18794
C          0.19549        1.40793        3.29167
C          0.54598        0.83026        4.50547
H          0.18673        1.26725        5.42214
C          1.20755       -0.38105        4.53452
H          1.35974       -0.87506        5.47926
C          1.53024       -1.05990        3.35893
C         -2.31561        1.54050        2.82727
H         -3.12025        1.81064        3.52012
H         -2.68398        1.84792        1.85130
C         -0.99733        2.32129        3.19209
H         -0.78692        3.10647        2.45796
H         -1.11568        2.85780        4.13995
C          0.32191       -3.34538        3.39376
H          0.35356       -4.11194        2.61272
H          0.16269       -3.90725        4.32096
C          1.68393       -2.56112        3.45684
H          2.22079       -2.80676        4.38096
H          2.35706       -2.91217        2.67865
C          2.73137       -2.44365        0.55113
C          2.08028       -3.63722        0.32396
C          3.98862       -2.42427        1.11806
C          2.64419       -4.81602        0.76640
C          4.54120       -3.60364        1.58054
C          3.84075       -4.79624        1.46409
C          2.82058        0.34646       -0.35174
C          3.02293        0.29637       -1.71182
C          3.24853        1.43562        0.37348
C          3.59364        1.36857       -2.36361
H          2.68534       -0.56041       -2.27056
C          3.82185        2.50759       -0.27663
H          3.08856        1.47159        1.43880
C          3.96858        2.49233       -1.65221
H          3.69369        1.37930       -3.43774
H          4.09419        3.39931        0.26561
Pd         0.09107       -1.09173       -1.15076
Cl        -1.29731       -1.07166       -2.91834
Cl         1.56122       -2.39891       -2.24532
H          5.46046       -3.59056        2.14342
H          4.48000       -1.48099        1.29988
H          2.10448       -5.74787        0.69844
H          1.09972       -3.64182       -0.12432
C         -2.24578        6.67959       -0.12020
C         -1.04425        5.72968        0.15722
C         -0.74955        5.56317        1.68088
F         -1.89698        7.93400        0.20640
F         -2.53156        6.60507       -1.42875
F         -3.30838        6.28865        0.59688
F          0.03830        6.25458       -0.42193
F         -1.77363        4.91808        2.25551
F          0.35191        4.80811        1.79758
F         -0.56100        6.76435        2.24391
C         -7.99834       -1.68257       -1.85392
C         -6.81624       -2.43714       -2.52682
C         -6.84422       -2.32251       -4.07968
F         -9.15944       -2.12895       -2.35571
F         -7.93452       -1.93236       -0.53740
F         -7.86143       -0.36617       -2.07144
F         -6.92981       -3.73142       -2.21577
F         -5.71430       -2.87439       -4.54684
F         -7.91128       -2.98578       -4.55133
F         -6.89928       -1.03128       -4.43481
C          2.99525        4.62266       -2.39727
C          4.29147        3.75875       -2.40024
C          5.50926        4.48976       -1.76441
F          2.02535        3.89029       -2.96436
F          2.65207        4.89307       -1.13056
F          3.20239        5.75075       -3.09220
F          4.59827        3.48096       -3.67018
F          6.52828        3.61809       -1.72435
F          5.83439        5.54604       -2.52599
F          5.20194        4.88449       -0.52093
C          5.64288       -6.07575        2.71121
C          4.12729       -5.96258        2.37736
C          3.24107       -5.73919        3.64538
F          6.02618       -5.01719        3.43806
F          5.85930       -7.21365        3.38899
F          6.31458       -6.09404        1.55048
F          3.74377       -7.10427        1.80100
F          3.51464       -4.53544        4.16568
F          1.96036       -5.75805        3.25007
F          3.47143       -6.71142        4.53769
