171
-217.84240045
P         -1.67098        0.33679       -0.38832
P          1.61652       -0.40220       -0.35073
C         -0.95824        1.25316       -1.75629
C          0.90787       -1.42473       -1.64463
C         -0.14281        0.60414       -2.67676
C          0.47174        1.36504       -3.69003
C          0.22236        2.72534       -3.76190
C         -0.61369        3.34387       -2.85679
C         -1.19875        2.60221       -1.84962
C          1.16166       -2.77473       -1.61958
C          0.57618       -3.60951       -2.55048
C         -0.28103       -3.08299       -3.49315
C         -0.55134       -1.72498       -3.53399
C          0.07297       -0.86858       -2.60729
Cl         1.61668        0.52652        2.70478
Cl        -1.49559       -0.23797        2.93939
C         -1.48078       -1.19319       -4.56731
C          1.37263        0.73408       -4.69356
H         -0.80822        4.40119       -2.93285
H         -1.85249        3.07822       -1.13728
H          1.82197       -3.17890       -0.86964
H          0.78297       -4.66715       -2.53391
H          0.69123        3.30107       -4.54208
H         -0.75194       -3.73105       -4.21299
C         -4.02231       -3.30309       -1.66803
C         -2.94079       -3.47037       -0.81152
C         -2.22688       -2.33903       -0.43694
C         -2.58257       -1.10515       -0.92073
C         -3.64948       -0.95563       -1.77169
C         -4.39897       -2.05886       -2.16119
H         -4.59084       -4.17105       -1.94376
H         -1.38976       -2.40807        0.23621
H         -3.90730        0.03155       -2.11818
C         -4.18786        2.85443        2.42419
C         -2.88443        3.25226        2.15305
C         -2.15038        2.49252        1.25226
C         -2.69609        1.37724        0.66612
C         -3.97906        0.98777        0.96141
C         -4.75504        1.72487        1.84736
H         -4.77872        3.42583        3.11492
H         -1.13150        2.75534        1.02460
H         -4.36133        0.08838        0.51234
C          4.42976       -2.72661        2.34160
C          3.08764       -3.08716        2.30734
C          2.24955       -2.38671        1.45048
C          2.73645       -1.35930        0.68157
C          4.06184       -1.00769        0.73760
C          4.94064       -1.69247        1.56674
H          5.09924       -3.25289        2.99553
H          1.20250       -2.63293        1.39408
H          4.40180       -0.18152        0.13905
C          3.84339        3.28031       -1.73232
C          4.13007        2.06242       -2.33735
C          3.40900        0.94671       -1.92692
C          2.44997        1.06230       -0.95089
C          2.18433        2.27100       -0.35842
C          2.87848        3.41081       -0.74077
H          4.40577        4.14394       -2.03327
H          3.59986       -0.02536       -2.34899
H          1.44903        2.31862        0.42674
Pd        -0.03520       -0.00410        1.25126
C         -3.75343       -5.37494        0.59596
C         -2.59325       -4.86698       -0.27848
C         -1.31010       -4.84323        0.57423
C         -2.37247       -5.82951       -1.46035
H         -3.93122       -4.69650        1.43021
H         -4.67678       -5.44838        0.02234
H         -3.53263       -6.36141        1.00327
H         -0.46569       -4.47248       -0.00553
H         -1.43227       -4.20929        1.45219
H         -1.05947       -5.84458        0.92401
H         -3.27554       -5.93910       -2.05931
H         -1.58157       -5.46219       -2.11303
H         -2.08587       -6.82016       -1.10783
C         -6.65638       -0.98802       -2.31813
C         -5.62960       -1.86265       -3.05987
C         -6.29692       -3.20541       -3.41527
C         -5.21415       -1.16836       -4.36978
H         -6.95709       -1.45970       -1.38290
H         -6.24242       -0.00777       -2.08423
H         -7.55075       -0.83726       -2.92240
H         -6.65207       -3.71703       -2.52094
H         -7.15649       -3.04904       -4.06698
H         -5.60143       -3.86218       -3.93765
H         -4.50899       -1.78493       -4.92528
H         -6.07976       -0.99464       -5.00885
H         -4.74415       -0.20453       -4.17858
C         -2.12519        5.59672        1.73626
C         -2.24623        4.49055        2.79805
C         -0.84789        4.13042        3.33962
C         -3.09181        5.01913        3.97302
H         -1.54153        5.25638        0.88249
H         -3.10926        5.88717        1.36881
H         -1.64094        6.48283        2.14626
H         -0.39846        4.97877        3.85531
H         -0.90990        3.30049        4.04317
H         -0.17109        3.83833        2.53905
H         -4.06768        5.36569        3.63407
H         -3.24125        4.24419        4.72470
H         -2.59726        5.86134        4.45687
C         -6.22798        1.00322        3.74037
C         -6.18071        1.30448        2.23126
C         -6.62498        0.04212        1.46746
C         -7.15903        2.44506        1.89534
H         -5.52179        0.21340        3.99589
H         -5.97067        1.88370        4.32793
H         -7.22331        0.67854        4.04312
H         -5.97527       -0.80362        1.69206
H         -7.64090       -0.24059        1.74290
H         -6.61005        0.21487        0.39223
H         -6.92233        3.34934        2.45463
H         -7.11693        2.68723        0.83353
H         -8.18379        2.16338        2.13695
C          3.53479       -4.74074        4.19036
C          2.50797       -4.21882        3.16704
C          2.09133       -5.37999        2.24803
C          1.27872       -3.69837        3.93892
H          4.40111       -5.17617        3.69293
H          3.87714       -3.93831        4.84362
H          3.09496       -5.51530        4.81853
H          2.95189       -5.76900        1.70408
H          1.65493       -6.19723        2.82197
H          1.35594       -5.05275        1.51493
H          0.48080       -3.39276        3.26377
H          0.87639       -4.46841        4.59675
H          1.54559       -2.83656        4.55016
C          7.29113       -2.54472        1.33835
C          6.42513       -1.31461        1.66723
C          6.72582       -0.83231        3.09768
C          6.79097       -0.18637        0.68187
H          7.11483       -3.35556        2.04399
H          7.06729       -2.91606        0.33844
H          8.35161       -2.29613        1.37652
H          6.10494        0.02673        3.35141
H          6.52669       -1.61543        3.82838
H          7.77003       -0.53725        3.19936
H          7.85072        0.05892        0.74996
H          6.58589       -0.48431       -0.34624
H          6.22918        0.72235        0.89758
C          5.00175        2.97175       -4.51507
C          5.26198        1.97333       -3.37116
C          5.37322        0.55836       -3.97200
C          6.59594        2.31619       -2.68255
H          4.04519        2.77189       -4.99579
H          4.98386        3.99821       -4.15123
H          5.78023        2.90388       -5.27482
H          5.60650       -0.17770       -3.20285
H          4.44527        0.26413       -4.46104
H          6.16721        0.51628       -4.71746
H          6.58194        3.32693       -2.27618
H          6.79272        1.62890       -1.86029
H          7.42669        2.24917       -3.38480
C          3.48267        5.87869       -0.55502
C          2.57947        4.74237       -0.03911
C          2.81553        4.58046        1.47471
C          1.11354        5.12786       -0.29868
H          3.33473        6.04383       -1.62210
H          3.25702        6.81392       -0.04271
H          4.53470        5.65283       -0.38173
H          2.17400        3.80866        1.89724
H          3.84894        4.29794        1.67424
H          2.61068        5.51087        2.00395
H          0.85501        6.05383        0.21458
H          0.93788        5.27133       -1.36425
H          0.43779        4.34821        0.04813
H         -0.94800       -0.95938       -5.48973
H          0.86522        0.61260       -5.65148
H         -1.97735       -0.28504       -4.22256
H         -2.25401       -1.92432       -4.80523
H          1.71358       -0.24818       -4.36385
H          2.25635        1.34973       -4.86084
