111
-148.54886963
P         -2.36930        2.31989       -0.28752
P         -0.00078        0.36406        0.49226
C         -1.79039        2.25377        1.42505
C         -0.79513        1.36533        1.76839
C         -2.46263        4.05241       -0.92395
C         -1.64439        4.18836       -2.18965
C         -2.36575        3.05391        2.39117
H         -3.12682        3.76345        2.11019
C         -1.96085        2.94039        3.70985
H         -2.41139        3.56248        4.46592
C         -0.98910        2.02245        4.05885
H         -0.68276        1.92398        5.08728
C         -0.40627        1.23102        3.08544
H          0.34295        0.49965        3.34582
Pd        -1.15526        0.76942       -1.49528
Cl        -2.60739        1.03352       -3.18428
Cl         0.04461       -0.87760       -2.44521
C         -3.97586        4.27371       -1.12983
C         -4.13727        1.79693       -0.49525
H         -1.68662        5.20503       -2.58798
H         -0.59550        3.93607       -2.01459
H         -2.01967        3.51469       -2.96250
H         -4.13464        4.95242       -1.98047
H         -4.40118        4.78976       -0.25658
H         -4.11721        0.84926       -1.05087
C         -4.73085        2.93304       -1.35251
C         -4.83602        1.60979        0.83451
H         -2.06665        4.70545       -0.13432
H         -5.80077        3.04655       -1.12458
H         -4.68093        2.66093       -2.41709
H         -4.29289        0.91117        1.47349
H         -4.90810        2.55753        1.36984
H         -5.85222        1.23044        0.70383
C         -1.19546       -4.00622        0.84155
C          0.16324       -3.68294        0.59235
C          0.51371       -2.34605        0.51208
C         -0.41078       -1.35935        0.73202
C         -1.69965       -1.66582        1.08437
C         -2.11147       -2.98374        1.20105
O         -1.65076       -5.33981        0.66745
C          1.23787       -4.74938        0.33386
H          1.51278       -2.05729        0.23907
H         -2.39026       -0.85565        1.24670
C         -3.54561       -3.27393        1.66869
C          4.49621        1.13043        0.15174
C          3.82394        0.36156       -0.83080
C          2.45807        0.18522       -0.70012
C          1.76931        0.67016        0.38059
C          2.43429        1.33861        1.37634
C          3.80129        1.55196        1.31355
O          5.85333        1.50283       -0.04192
C          4.54430       -0.25212       -2.04220
H          1.89871       -0.32662       -1.46163
H          1.86617        1.71045        2.20867
C          4.50392        2.24978        2.48974
C          2.61488       -4.26657        0.84311
C          0.92051       -6.05875        1.07855
C          1.33121       -5.00989       -1.17747
C         -3.98648       -2.23330        2.72259
C         -4.49502       -3.19519        0.46357
C         -3.65214       -4.65597        2.33877
C         -2.12199       -5.61111       -0.64692
H          2.98908       -3.42426        0.26438
H          2.55600       -3.96331        1.88803
H          3.35624       -5.06159        0.76612
H          1.71915       -6.78823        0.94612
H          0.80253       -5.87439        2.14579
H          0.00078       -6.50960        0.71451
H          1.57525       -4.09231       -1.71234
H          2.10153       -5.74743       -1.40094
H          0.38669       -5.37925       -1.57077
H         -4.08610       -1.23937        2.29175
H         -4.95508       -2.49722        3.14655
H         -3.26611       -2.18042        3.53851
H         -4.45387       -2.20788        0.00386
H         -4.22551       -3.92524       -0.29666
H         -5.52500       -3.38504        0.76434
H         -2.94525       -4.73763        3.16377
H         -4.65418       -4.82451        2.73248
H         -3.43696       -5.45653        1.63588
H         -3.17181       -5.90129       -0.60908
H         -2.01302       -4.72794       -1.27793
H         -1.55314       -6.43560       -1.07656
C          6.02668        2.74020       -0.72127
C          5.98380       -0.66100       -1.68116
C          3.82120       -1.53187       -2.52158
C          4.55242        0.76232       -3.19564
C          5.94373        1.73211        2.66125
C          4.51051        3.76739        2.25204
C          3.76400        1.96401        3.81691
H          5.98628       -1.35002       -0.83717
H          6.47422       -1.15191       -2.52138
H          6.58543        0.20230       -1.40823
H          4.39608       -2.03188       -3.30065
H          3.69202       -2.23481       -1.69992
H          2.84134       -1.31012       -2.94149
H          5.07008        1.67607       -2.91450
H          5.04883        0.35081       -4.07406
H          3.53478        1.03131       -3.47796
H          6.41969        2.17916        3.53367
H          5.94959        0.65012        2.78876
H          6.55693        1.96881        1.79544
H          3.49315        4.14714        2.16040
H          4.99274        4.28975        3.07793
H          5.04172        4.02178        1.33822
H          2.78685        2.44392        3.84606
H          4.33147        2.34502        4.66570
H          3.62585        0.89273        3.96103
H          6.59701        2.57848       -1.63579
H          5.05875        3.17810       -0.96824
H          6.58733        3.42891       -0.08949
