105
-153.06626078
Cl         3.62335        0.87250       -0.71678
Pd         1.41445        0.52197       -0.96884
P         -0.90017        0.27260       -1.39676
N         -0.75380       -1.35063       -2.09915
C          0.02042       -2.36024       -1.51985
C         -0.06232       -2.69932       -0.14549
C          0.82023       -3.65002        0.40056
C          0.69694       -4.01339        1.86035
C          1.96407       -4.65987        2.43921
C          2.45485       -5.79095        1.52995
C          2.76936       -5.26797        0.11835
C          1.76866       -4.27097       -0.41445
C          1.80909       -3.95645       -1.76752
C          0.95187       -3.03470       -2.31157
H          1.02097       -2.78453       -3.35578
H          2.54105       -4.44038       -2.39187
H          3.75961       -4.79680        0.11388
H          3.33244       -6.28771        1.96732
H          2.74999       -3.89943        2.52958
H          0.43349       -3.12041        2.43958
C         -1.09956       -2.08476        0.71630
C         -0.72530       -1.05788        1.61431
C         -1.69439       -0.53102        2.46643
C         -2.97355       -1.02646        2.46813
C         -3.35212       -2.05348        1.61035
C         -4.76987       -2.56284        1.68025
C         -4.98309       -3.90704        0.96635
C         -4.28359       -3.92152       -0.39683
C         -2.77285       -3.68246       -0.24524
C         -2.41632       -2.57480        0.71440
H         -2.28340       -4.60425        0.09072
H         -4.71410       -3.13828       -1.03283
H         -6.05481       -4.12516        0.85581
H         -5.43492       -1.80658        1.24830
H         -3.70669       -0.61447        3.14075
H         -1.41904        0.25624        3.14178
N          0.61960       -0.68240        1.71792
P          1.23090        0.91149        1.34341
C          0.21910        2.26419        1.92505
C         -0.14180        2.31871        3.24997
C         -0.93887        3.35589        3.70049
C         -1.35711        4.35481        2.83120
C         -0.95706        4.29570        1.50309
C         -0.16135        3.25779        1.05425
H          0.15548        3.21235        0.02637
H         -1.27717        5.06473        0.82092
C         -2.24799        5.44989        3.30495
H         -1.24195        3.39458        4.73285
H          0.20769        1.55438        3.92661
C          2.85918        1.06858        2.07149
C          3.50469       -0.04198        2.55963
C          4.77077        0.08165        3.10273
C          5.39892        1.31888        3.15351
C          4.72516        2.43043        2.66495
C          3.45917        2.30412        2.12158
H          2.93646        3.16337        1.73141
H          5.19960        3.39584        2.70919
C          6.75338        1.45752        3.75659
H          5.27962       -0.78455        3.48989
H          3.01573       -1.00116        2.52016
H          1.27488       -1.26136        1.20956
H         -0.56154       -1.18172       -3.07811
C         -0.90922        1.41433       -2.80029
C         -0.18819        2.58607       -2.81723
C         -0.24408        3.41677       -3.92042
C         -1.03179        3.08920       -5.01476
C         -1.75098        1.90301       -4.98389
C         -1.69171        1.07290       -3.87859
H         -2.25998        0.15668       -3.85401
H         -2.35667        1.63157       -5.83160
C         -1.06859        3.97028       -6.21470
H          0.33160        4.32644       -3.94031
H          0.43679        2.84545       -1.98087
C         -2.53585        0.47243       -0.68654
C         -2.78406        1.40007        0.29426
C         -4.07318        1.58725        0.75579
C         -5.12673        0.85682        0.22409
C         -4.85893       -0.07012       -0.77467
C         -3.56561       -0.25778       -1.22927
H         -3.34970       -0.97722       -2.00291
H         -5.66711       -0.64540       -1.19273
C         -6.50877        1.04417        0.74545
H         -4.26802        2.30209        1.53701
H         -1.96918        1.96581        0.70631
Cl         1.78660       -0.03811       -3.11848
H          2.84161       -6.10536       -0.58740
H          1.78774       -5.02581        3.46058
H          1.68033       -6.56575        1.46724
H         -0.15317       -4.69597        1.97710
H         -4.47809       -4.86648       -0.92342
H         -2.32931       -3.45534       -1.22279
H         -5.06490       -2.64216        2.73442
H         -4.58076       -4.71691        1.58791
H         -2.05938        6.37483        2.75816
H         -3.29649        5.18349        3.16433
H         -2.09185        5.65473        4.36500
H          7.30569        2.27930        3.29873
H          6.68263        1.65422        4.82721
H          7.34025        0.54829        3.61903
H         -0.27594        3.70318       -6.91486
H         -2.02238        3.88504       -6.73725
H         -0.93523        5.01718       -5.93851
H         -6.61944        0.57839        1.72575
H         -6.74675        2.10390        0.84775
H         -7.24879        0.60093        0.07773
