171
-217.84179506
P         -1.63732        0.34242       -0.36618
P          1.61603       -0.37435       -0.41499
C         -0.97065        1.29683       -1.72676
C          0.90925       -1.37109       -1.72603
C         -0.17203        0.68037       -2.68319
C          0.40209        1.47612       -3.69291
C          0.11528        2.83071       -3.73573
C         -0.71157        3.41305       -2.79879
C         -1.24533        2.64109       -1.78613
C          1.18295       -2.71718       -1.74850
C          0.59579       -3.52942       -2.69786
C         -0.28184       -2.98395       -3.61029
C         -0.56907       -1.62885       -3.60500
C          0.05874       -0.79276       -2.66150
Cl         1.63596        0.51637        2.73688
Cl        -1.48294       -0.43197        2.87472
C         -1.53117       -1.08639       -4.60194
C          1.28912        0.88213       -4.72939
H         -0.93724        4.46555       -2.85289
H         -1.88461        3.08806       -1.04195
H          1.86164       -3.13589       -1.02339
H          0.81547       -4.58445       -2.71780
H          0.54623        3.43132       -4.51897
H         -0.75693       -3.61470       -4.34270
C         -4.04451       -3.20831       -1.78915
C         -2.95920       -3.42848       -0.94951
C         -2.23151       -2.32442       -0.52286
C         -2.57691       -1.06498       -0.94357
C         -3.64596       -0.86351       -1.78168
C         -4.41134       -1.93785       -2.21832
H         -4.62307       -4.05605       -2.10419
H         -1.39053       -2.43420        0.13993
H         -3.89111        0.14136       -2.08379
C         -4.10030        2.81652        2.53305
C         -4.70782        1.74954        1.88417
C         -3.94694        1.02552        0.97466
C         -2.64061        1.36917        0.72659
C         -2.05636        2.42705        1.38065
C         -2.77693        3.17057        2.30668
H         -4.66874        3.37539        3.25359
H         -4.36025        0.16993        0.47119
H         -1.02076        2.64731        1.18617
C          4.24777       -2.72814        2.43744
C          2.93205       -3.13335        2.24949
C          2.16165       -2.42917        1.33437
C          2.68534       -1.35762        0.65357
C          3.98368       -0.96274        0.86219
C          4.79557       -1.64694        1.75836
H          4.86360       -3.25266        3.14343
H          1.13258       -2.70188        1.17064
H          4.34996       -0.09793        0.33828
C          3.97942        3.21790       -1.81353
C          2.95935        3.40203       -0.88693
C          2.22393        2.28956       -0.49975
C          2.50882        1.05260       -1.02014
C          3.52325        0.88415       -1.93034
C          4.28523        1.96986       -2.34558
H          4.55970        4.06715       -2.11814
H          1.43444        2.38203        0.22689
H          3.73532       -0.10601       -2.29847
Pd         0.01726       -0.01876        1.25812
C         -1.33262       -4.88555        0.35014
C         -2.61930       -4.85463       -0.49594
C         -2.40949       -5.75174       -1.73014
C         -3.77870       -5.40293        0.35481
H         -1.44845       -4.30038        1.26198
H         -1.08594       -5.90599        0.64290
H         -0.48917       -4.48749       -0.21272
H         -2.13040       -6.76279       -1.43403
H         -3.31486       -5.82040       -2.33169
H         -1.61687       -5.35528       -2.36342
H         -3.56194       -6.41145        0.70653
H         -3.94858       -4.77022        1.22583
H         -4.70500       -5.43962       -0.21753
C         -6.34249       -3.00184       -3.49497
C         -5.64653       -1.68572       -3.09735
C         -5.23268       -0.94989       -4.38487
C         -6.65005       -0.82079       -2.31395
H         -6.69462       -3.54150       -2.61603
H         -7.20772       -2.80532       -4.12806
H         -5.66615       -3.64985       -4.05225
H         -6.10355       -0.72561       -5.00065
H         -4.73198       -0.00842       -4.16251
H         -4.55586       -1.56235       -4.97863
H         -6.21873        0.14622       -2.05770
H         -7.55089       -0.63916       -2.89985
H         -6.94371       -1.31695       -1.38918
C         -7.07543        2.58093        1.96528
C         -6.15613        1.37350        2.22682
C         -6.23322        0.97045        3.71066
C         -6.65260        0.19155        1.37272
H         -8.11505        2.33241        2.17808
H         -6.80289        3.43096        2.58953
H         -7.01000        2.89537        0.92379
H         -7.24634        0.67575        3.98360
H         -5.56943        0.13048        3.91478
H         -5.93827        1.79405        4.35983
H         -7.68467       -0.05830        1.61835
H         -6.61551        0.43927        0.31296
H         -6.04858       -0.69955        1.54274
C         -0.66244        4.51632        2.74001
C         -2.14324        4.31348        3.11186
C         -2.22137        3.97685        4.61259
C         -2.90352        5.62117        2.82763
H         -0.22227        5.32427        3.32422
H         -0.08357        3.61387        2.93585
H         -0.55867        4.77647        1.68778
H         -3.25416        3.87713        4.94404
H         -1.71105        3.03648        4.82058
H         -1.75224        4.75631        5.21263
H         -2.46402        6.45472        3.37524
H         -2.87172        5.86096        1.76489
H         -3.94947        5.54315        3.12200
C          3.24964       -4.84426        4.10827
C          2.30470       -4.30485        3.01734
C          1.99382       -5.44131        2.02827
C          1.00394       -3.83158        3.69666
H          2.77563       -5.65281        4.66466
H          4.16768       -5.23980        3.67434
H          3.51168       -4.06139        4.81982
H          1.32304       -5.10173        1.24101
H          2.90715       -5.79951        1.55363
H          1.52170       -6.28330        2.53415
H          1.20222       -2.99246        4.36310
H          0.26505       -3.50656        2.96598
H          0.55656       -4.63262        4.28462
C          7.19424       -2.39001        1.78588
C          6.23843       -1.21196        2.05083
C          6.34304       -0.77561        3.52336
C          6.66601       -0.03085        1.15858
H          7.10953       -2.72897        0.75351
H          8.22968       -2.09861        1.96142
H          6.97313       -3.23598        2.43541
H          7.35224       -0.43965        3.76085
H          5.65552        0.04443        3.72997
H          6.09623       -1.59556        4.19683
H          7.69656        0.25799        1.36457
H          6.60199       -0.30012        0.10519
H          6.03824        0.84293        1.33257
C          2.74905        4.65698        1.27220
C          2.64151        4.76702       -0.26075
C          1.21398        5.18101       -0.65574
C          3.61703        5.85980       -0.73828
H          2.53198        5.61257        1.74910
H          2.05119        3.92095        1.66801
H          3.75336        4.35257        1.56596
H          1.13510        5.29423       -1.73650
H          0.48771        4.43137       -0.34565
H          0.93839        6.12978       -0.19574
H          3.38299        6.81661       -0.27162
H          4.64516        5.60822       -0.47843
H          3.55568        5.99717       -1.81768
C          6.49275        0.82249       -2.63120
C          5.46470        1.74843       -3.30591
C          6.16532        3.07283       -3.66687
C          4.96394        1.09810       -4.60783
H          7.34793        0.64666       -3.28352
H          6.86036        1.26810       -1.70726
H          6.05346       -0.14459       -2.38884
H          5.47279        3.76474       -4.14599
H          6.57881        3.55351       -2.78045
H          6.98873        2.89777       -4.35925
H          4.46199        0.15128       -4.41296
H          4.26353        1.75600       -5.12022
H          5.79278        0.90086       -5.28755
H         -1.04936       -0.93123       -5.56796
H          2.04899        1.59757       -5.04420
H         -1.95107       -0.13460       -4.27358
H         -2.35900       -1.78013       -4.75077
H          0.71942        0.59359       -5.61334
H          1.80170       -0.00362       -4.35149
