64
-97.21342711
Cl        -1.59049       -1.11659       -2.63755
Cl         1.61821       -1.31814       -2.87239
P          1.94679       -0.65925        0.23835
C          2.14575       -2.33739        0.99792
C          3.73565       -0.25350       -0.07106
P         -1.27159       -0.12735        0.45926
C          1.29581        0.56266        1.43295
C         -0.12611        0.82748        1.52164
C         -0.32612        1.92646        2.45414
C          0.98448        2.37239        2.89161
C          1.98770        1.51553        2.28540
H         -1.28596        2.32716        2.78488
H          1.17966        3.17907        3.60168
Pd         0.14154       -0.95463       -1.22864
H          3.06819        1.58458        2.42367
C         -5.00677        2.15265       -0.84469
C         -4.03266        2.80783       -0.11864
C         -2.89793        2.12742        0.28180
C         -2.73314        0.80068       -0.04743
C         -3.70826        0.14545       -0.76466
C         -4.84680        0.82015       -1.16753
H         -5.89193        2.68114       -1.15929
H         -4.15513        3.84801        0.13536
H         -2.13375        2.63377        0.84391
H         -3.57173       -0.89403       -1.01560
H         -5.60489        0.30592       -1.73516
C         -2.64513       -3.93324        2.52121
C         -2.39203       -2.79938        3.26895
C         -1.98044       -1.63735        2.64086
C         -1.82302       -1.62248        1.27443
C         -2.08041       -2.74624        0.52377
C         -2.49213       -3.90885        1.14851
H         -2.96572       -4.83880        3.01002
H         -2.51356       -2.81897        4.33953
H         -1.77400       -0.74339        3.20785
H         -1.96600       -2.70209       -0.54776
H         -2.69434       -4.79181        0.56475
C          4.11277       -0.32499       -1.53454
H          3.90154        0.76011        0.31662
C          4.47257       -1.30189        0.78521
H          4.65033       -0.90362        1.79495
C          3.65670       -2.61774        0.88664
H          5.46879       -1.49382        0.36054
C          1.63758       -2.33169        2.42334
H          1.56481       -3.03852        0.38310
H          3.98573       -3.21286        1.75063
H          3.85887       -3.24094        0.00345
H          2.19152       -1.60831        3.02499
H          0.58303       -2.05419        2.46802
H          1.74866       -3.31141        2.89395
H          5.17454       -0.11793       -1.68460
H          3.91191       -1.32123       -1.93147
H          3.54625        0.38694       -2.13638
Fe         0.84015        2.45887        0.83253
C          2.19170        3.16238       -0.50446
C          1.35844        4.24060        0.00442
C         -0.02092        3.97359       -0.36573
C         -0.03975        2.67598       -1.01609
C          1.32206        2.19851       -1.14998
H          3.28097        3.10516       -0.44010
H          1.71883        5.13798        0.51312
H         -0.88374        4.60869       -0.15685
H         -0.91804        2.18819       -1.44361
H          1.62511        1.29166       -1.67596
