111
-148.55654695
P         -2.76232        1.76206       -0.25151
P          0.17272        0.62909        0.15157
C         -1.82292        2.19862        1.23651
C         -0.52261        1.76182        1.37566
C         -3.82695        3.16464       -0.82142
C         -3.20580        3.90919       -1.98297
C         -2.40075        2.96957        2.22506
H         -3.42368        3.29201        2.12082
C         -1.66933        3.31009        3.34973
H         -2.11982        3.91226        4.12181
C         -0.36403        2.87830        3.48402
H          0.20535        3.14168        4.36019
C          0.20850        2.09750        2.49654
H          1.22048        1.74019        2.59719
Pd        -1.20818        0.86823       -1.70412
Cl        -2.78882        0.96498       -3.29323
Cl         0.36996       -0.08127       -2.98502
C         -5.16055        2.46351       -1.13790
C         -4.04714        0.45208        0.00030
H         -3.83994        4.73562       -2.31209
H         -2.22807        4.31675       -1.71539
H         -3.06107        3.24709       -2.83726
H         -5.15840        2.16370       -2.19505
H         -5.99993        3.16758       -1.03107
H         -3.87925       -0.29146       -0.79052
C         -5.36831        1.20718       -0.24384
C         -3.93363       -0.18417        1.36869
H         -3.94780        3.83382        0.03973
H         -5.78335        1.51456        0.72586
H         -6.11831        0.53275       -0.68410
H         -2.96568       -0.67070        1.49950
H         -4.03112        0.56687        2.15472
H         -4.71157       -0.93474        1.52646
C         -1.29856       -3.52877        1.28322
C         -0.93682       -3.25068       -0.06145
C         -0.47681       -1.98175       -0.36297
C         -0.31711       -1.03242        0.61101
C         -0.53670       -1.33746        1.92839
C         -0.98276       -2.59337        2.30505
O         -2.05153       -4.69108        1.59032
C         -1.04124       -4.26496       -1.21166
H         -0.25556       -1.70753       -1.37997
H         -0.37784       -0.57130        2.66793
C         -1.10182       -2.88959        3.80886
C          4.71653        0.88460       -0.03977
C          3.94385        1.36092       -1.13007
C          2.56328        1.30462       -1.03072
C          1.95631        0.72260        0.05075
C          2.70097        0.15306        1.05107
C          4.08503        0.19246        1.02456
O          6.11638        1.12201        0.00219
C          4.57694        1.92970       -2.41018
H          1.93807        1.70084       -1.81165
H          2.18005       -0.33172        1.85873
C          4.87754       -0.48691        2.15237
C         -2.22276       -3.88268       -2.11938
C          0.26175       -4.23655       -2.04115
C         -1.22367       -5.70635       -0.70649
C          0.19224       -2.43644        4.52053
C         -2.29570       -2.11400        4.39046
C         -1.27247       -4.39084        4.09861
C         -3.45059       -4.47025        1.51977
H         -3.16282       -3.90360       -1.57141
H         -2.09593       -2.87808       -2.52198
H         -2.30777       -4.57188       -2.95900
H          1.12657       -4.42164       -1.40475
H          0.24492       -5.00145       -2.81702
H          0.40655       -3.27760       -2.53575
H         -2.17564       -5.82693       -0.19492
H         -1.20053       -6.41781       -1.53161
H         -0.43225       -5.97105       -0.00618
H          1.06257       -2.92137        4.07920
H          0.33638       -1.35942        4.45235
H          0.16446       -2.69431        5.57890
H         -2.17642       -1.04172        4.23779
H         -3.22853       -2.41482        3.91727
H         -2.39037       -2.29134        5.46142
H         -1.25683       -4.58848        5.17018
H         -2.21714       -4.76296        3.70932
H         -0.47115       -4.96501        3.63483
H         -3.97310       -5.40310        1.73251
H         -3.74806       -3.71736        2.24780
H         -3.72452       -4.12237        0.52500
C          6.47771        2.36109        0.59890
C          3.67391        1.64737       -3.63323
C          4.74650        3.44923       -2.26429
C          5.93703        1.26828       -2.69867
C          5.15134        0.53328        3.26772
C          4.07801       -1.66625        2.75235
C          6.20313       -1.06348        1.62319
H          4.17711        1.92504       -4.55903
H          3.42244        0.58878       -3.69288
H          2.74644        2.21614       -3.59110
H          3.78291        3.93002       -2.09739
H          5.38875        3.69548       -1.42209
H          5.18800        3.88070       -3.16227
H          6.66013        1.48931       -1.91772
H          5.83139        0.18559       -2.75879
H          6.35277        1.62165       -3.64193
H          5.70066        0.07507        4.08978
H          5.73680        1.37210        2.89955
H          4.21715        0.92974        3.66498
H          3.75225       -2.35246        1.97099
H          4.68895       -2.22863        3.45811
H          3.19948       -1.32122        3.29568
H          6.73833       -1.59908        2.40687
H          6.85823       -0.27730        1.25569
H          6.01958       -1.75644        0.80276
H          6.99901        2.98141       -0.12981
H          5.59011        2.88561        0.95487
H          7.15294        2.17909        1.43488
