171
-217.83862551
P         -1.48899        0.20520       -0.33658
P          1.75848       -0.57975       -0.16993
C         -0.76502        0.97125       -1.79239
C          1.03026       -1.68860       -1.39967
C          0.00628        0.21358       -2.66377
C          0.58656        0.84054       -3.78298
C          0.35732        2.19080       -3.99430
C         -0.42187        2.92375       -3.12377
C         -0.98328        2.30687       -2.02303
C          1.22755       -3.03505       -1.20120
C          0.60242       -3.96454       -2.00816
C         -0.24377       -3.53698       -3.00741
C         -0.45892       -2.18794       -3.22977
C          0.20239       -1.24003       -2.42485
Cl         1.42543       -0.39877        3.07396
Cl        -1.62389       -1.12605        2.75887
C         -1.40845       -1.78013       -4.30186
C          1.42165        0.06107       -4.73892
H         -0.59165        3.97325       -3.30068
H         -1.60194        2.86797       -1.34280
H          1.87316       -3.36725       -0.40561
H          0.76481       -5.01784       -1.84705
H          0.79299        2.66851       -4.85534
H         -0.75371       -4.25584       -3.62658
C         -4.32032       -3.12571       -1.51919
C         -3.42731       -3.33752       -0.47542
C         -2.57996       -2.29593       -0.12724
C         -2.61012       -1.10838       -0.81251
C         -3.48432       -0.92110       -1.85504
C         -4.36816       -1.92892       -2.22480
H         -5.01190       -3.90332       -1.78264
H         -1.90583       -2.40407        0.70424
H         -3.46148        0.01326       -2.38795
C         -3.89837        3.40318        1.83507
C         -4.29179        2.97577        0.57422
C         -3.53718        1.98369       -0.03945
C         -2.42716        1.45773        0.57624
C         -2.05695        1.89938        1.82487
C         -2.79565        2.86935        2.48751
H         -4.46781        4.17257        2.32331
H         -3.80546        1.62219       -1.01582
H         -1.18860        1.48090        2.29694
C          5.17438       -2.63175        2.00797
C          5.46590       -1.58480        1.14054
C          4.40832       -0.97277        0.48026
C          3.11652       -1.38758        0.68808
C          2.84869       -2.42009        1.55172
C          3.87262       -3.06492        2.23118
H          5.97875       -3.11691        2.52624
H          4.59411       -0.15900       -0.19783
H          1.82419       -2.70597        1.72441
C          2.94483        3.65831       -1.26401
C          2.00194        3.45799       -0.26341
C          1.63739        2.15112        0.02920
C          2.19113        1.09602       -0.65713
C          3.12209        1.31334       -1.64367
C          3.52410        2.60512       -1.96277
H          3.24634        4.66135       -1.49546
H          0.92298        1.95784        0.81000
H          3.54848        0.46781       -2.15684
Pd        -0.00892       -0.46798        1.34199
C         -4.34754       -5.69758       -0.22654
C         -3.35199       -4.65276        0.31174
C         -3.67967       -4.37640        1.79099
C         -1.92810       -5.22912        0.19643
H         -4.27166       -6.62882        0.33473
H         -5.37436       -5.34311       -0.13883
H         -4.14784       -5.92567       -1.27344
H         -4.67470       -3.94331        1.89014
H         -3.65062       -5.29550        2.37578
H         -2.96763       -3.67910        2.23090
H         -1.84210       -6.17039        0.73886
H         -1.67403       -5.41585       -0.84657
H         -1.18712       -4.54162        0.60310
C         -6.81068       -1.61924       -2.64463
C         -5.42937       -1.71935       -3.31586
C         -5.42137       -2.90350       -4.30245
C         -5.17506       -0.42530       -4.11470
H         -7.59491       -1.45983       -3.38446
H         -7.04601       -2.53059       -2.09565
H         -6.83667       -0.78867       -1.93934
H         -5.67368       -3.83998       -3.80728
H         -6.14869       -2.74824       -5.09922
H         -4.44162       -3.02076       -4.76346
H         -5.24827        0.45427       -3.47597
H         -4.18779       -0.43583       -4.57547
H         -5.91099       -0.31155       -4.91056
C         -6.75101        3.42342        0.79766
C         -5.51598        3.60654       -0.10374
C         -5.81030        2.95188       -1.46821
C         -5.25047        5.10630       -0.32708
H         -6.61934        3.91986        1.75823
H         -7.64186        3.83981        0.32773
H         -6.93320        2.36611        0.98924
H         -6.00583        1.88559       -1.35593
H         -6.68836        3.40125       -1.93186
H         -4.97390        3.08077       -2.15504
H         -5.08196        5.62253        0.61740
H         -4.36758        5.25178       -0.94949
H         -6.09598        5.58313       -0.82261
C         -1.25302        2.53993        4.48687
C         -2.43394        3.34203        3.90327
C         -3.64905        3.14806        4.82995
C         -2.04579        4.83004        3.86028
H         -0.35098        2.67483        3.89186
H         -1.02721        2.86629        5.50178
H         -1.48347        1.47534        4.52525
H         -3.95736        2.10283        4.84394
H         -3.41133        3.44356        5.85169
H         -4.49957        3.74411        4.50177
H         -1.79112        5.19579        4.85483
H         -1.18232        4.98377        3.21467
H         -2.86309        5.44042        3.47765
C          7.26308       -1.37461       -0.58940
C          6.89815       -1.09616        0.87977
C          7.92070       -1.81109        1.78403
C          6.98090        0.41709        1.15861
H          8.27149       -1.02797       -0.81465
H          7.21692       -2.44261       -0.80152
H          6.57583       -0.87150       -1.26801
H          7.93411       -2.88375        1.59200
H          8.92694       -1.43328        1.60300
H          7.69151       -1.65015        2.83731
H          6.31840        0.98050        0.50321
H          6.69563        0.63416        2.18774
H          7.99401        0.78762        1.00342
C          2.64933       -3.61381        4.34477
C          3.52046       -4.19096        3.21317
C          4.78076       -4.82174        3.83508
C          2.73981       -5.29124        2.46910
H          1.72225       -3.19435        3.95563
H          2.38946       -4.38398        5.07058
H          3.17804       -2.81808        4.86887
H          5.34942       -4.08529        4.40248
H          4.51263       -5.62735        4.51853
H          5.42843       -5.24256        3.06614
H          1.80329       -4.90974        2.06384
H          3.32689       -5.68625        1.64023
H          2.49922       -6.11808        3.13708
C          1.96762        5.97801        0.11512
C          1.39861        4.61372        0.54976
C          1.72448        4.40260        2.04001
C         -0.12672        4.64142        0.35172
H          1.53228        6.78367        0.70627
H          3.04805        6.01494        0.25326
H          1.74398        6.18059       -0.93217
H          2.80234        4.36482        2.19607
H          1.32352        5.21366        2.64739
H          1.30280        3.46870        2.40809
H         -0.58338        3.71163        0.68555
H         -0.58043        5.45725        0.91356
H         -0.37428        4.78297       -0.69957
C          5.93809        2.19439       -2.48206
C          4.63422        2.82566       -3.00228
C          4.88464        4.32383       -3.26349
C          4.23950        2.16572       -4.33416
H          6.22739        2.63712       -1.52921
H          5.82054        1.12221       -2.33242
H          6.75507        2.34576       -3.18732
H          5.22102        4.83067       -2.35927
H          5.65649        4.46003       -4.02095
H          3.98002        4.81509       -3.62170
H          5.00581        2.32780       -5.09204
H          4.11068        1.09059       -4.21946
H          3.30541        2.58498       -4.70590
H         -2.37617       -2.25927       -4.15393
H          0.80222       -0.57672       -5.36969
H         -1.03878       -2.07336       -5.28552
H         -1.57266       -0.70208       -4.30857
H          2.12824       -0.57818       -4.20724
H          1.99172        0.71594       -5.39864
