111
-148.54969657
P         -2.64603        1.85962        0.16965
P          0.19005        0.47928        0.42536
C         -1.78605        1.84194        1.77102
C         -0.52882        1.28592        1.86628
C         -3.75788        3.34021        0.06168
C         -3.49077        4.16431       -1.17807
C         -2.38853        2.36771        2.89689
H         -3.38106        2.78118        2.82791
C         -1.72430        2.34371        4.11112
H         -2.19494        2.75547        4.98897
C         -0.46267        1.78821        4.20101
H          0.05228        1.76456        5.14731
C          0.13417        1.25043        3.07530
H          1.10819        0.79004        3.13287
Pd        -1.01877        1.28116       -1.38019
Cl        -2.44858        1.90070       -2.98987
Cl         0.55655        0.51001       -2.78459
C         -5.16863        2.71568        0.10461
C         -3.88698        0.49687       -0.00461
H         -4.10974        5.06423       -1.20350
H         -2.44373        4.47049       -1.23458
H         -3.71562        3.58911       -2.07681
H         -5.86131        3.33418       -0.48461
H         -5.55675        2.73675        1.13356
H         -3.53388       -0.15546       -0.81538
C         -5.16910        1.24979       -0.41406
C         -4.01628       -0.28512        1.28433
H         -3.56457        3.94437        0.95797
H         -6.04967        0.70635       -0.04136
H         -5.26402        1.25342       -1.51001
H         -4.74504       -1.09403        1.19265
H         -3.06045       -0.72385        1.57745
H         -4.34213        0.36521        2.09825
C         -1.43317       -3.77520        0.37523
C         -0.98701       -3.17804       -0.83104
C         -0.47768       -1.89358       -0.77299
C         -0.34027       -1.23470        0.41999
C         -0.66007       -1.85339        1.60026
C         -1.17125       -3.14062        1.61681
O         -2.18565       -4.97900        0.33718
C         -1.10833       -3.86564       -2.19915
H         -0.20606       -1.37039       -1.67243
H         -0.53460       -1.30130        2.51503
C         -1.47965       -3.80488        2.96762
C          4.71350        0.91553        0.09361
C          3.95269        1.94324        0.70689
C          2.58205        1.77181        0.81364
C          1.96541        0.66167        0.29697
C          2.68417       -0.28414       -0.38580
C          4.05450       -0.16467       -0.54676
O          6.13245        0.95375        0.14668
C          4.59888        3.21552        1.27745
H          1.97236        2.50615        1.31079
H          2.15307       -1.12144       -0.80378
C          4.79742       -1.19832       -1.40790
C         -2.44686       -3.47186       -2.84254
C          0.03941       -3.42155       -3.13450
C         -1.00983       -5.39604       -2.06699
C         -0.49661       -3.31068        4.05309
C         -2.90892       -3.44356        3.40029
C         -1.32228       -5.33399        2.88282
C         -3.58931       -4.77575        0.22918
H         -2.56152       -3.93633       -3.82150
H         -3.28683       -3.77866       -2.22353
H         -2.50843       -2.39145       -2.97217
H          0.02457       -3.99217       -4.06272
H         -0.04126       -2.37010       -3.40554
H          1.00686       -3.58079       -2.65990
H         -1.83542       -5.79889       -1.48600
H         -1.03052       -5.87594       -3.04513
H         -0.08263       -5.67899       -1.56976
H         -0.62906       -3.87057        4.97862
H          0.53554       -3.43975        3.72839
H         -0.65254       -2.25947        4.29088
H         -3.15712       -3.90885        4.35387
H         -3.01673       -2.36531        3.51458
H         -3.63910       -3.77367        2.66521
H         -2.04303       -5.76947        2.19527
H         -0.32494       -5.59822        2.53287
H         -1.47433       -5.79840        3.85684
H         -3.81949       -3.70962        0.21418
H         -3.95775       -5.23857       -0.68614
H         -4.09267       -5.24430        1.07474
C          6.69067        0.26755        1.26001
C          5.82536        3.63304        0.44566
C          3.60582        4.39914        1.24091
C          5.00861        2.96636        2.73685
C          5.23438       -2.37843       -0.52729
C          3.87489       -1.73256       -2.52768
C          6.02027       -0.56787       -2.09870
H          6.24437        4.57122        0.80856
H          6.61059        2.88251        0.49279
H          5.55201        3.76546       -0.60063
H          4.10048        5.32777        1.52477
H          3.19638        4.53084        0.23969
H          2.77917        4.25311        1.93470
H          4.14133        2.69856        3.34002
H          5.72679        2.15346        2.81115
H          5.46157        3.85645        3.17277
H          4.37042       -2.85162       -0.06112
H          5.75558       -3.13274       -1.11622
H          5.90141       -2.05232        0.26708
H          4.43234       -2.35767       -3.22478
H          3.06832       -2.34319       -2.12581
H          3.43406       -0.91102       -3.09184
H          6.75881       -0.23581       -1.37338
H          5.72193        0.29664       -2.69084
H          6.50754       -1.28198       -2.76206
H          7.29202        0.95888        1.85020
H          5.90061       -0.15191        1.88414
H          7.34079       -0.53333        0.90843
