111
-148.55530629
P         -2.56581        2.05888        0.90056
P          0.12053        0.42253        0.51534
C         -1.46864        1.78527        2.31694
C         -0.28472        1.10298        2.13618
C         -3.37824        3.72048        0.94499
C         -2.79642        4.63686       -0.10934
C         -1.81660        2.23944        3.57282
H         -2.75278        2.75471        3.71261
C         -0.96917        2.01632        4.64451
H         -1.23948        2.37092        5.62575
C          0.22012        1.33754        4.45917
H          0.87849        1.16223        5.29402
C          0.56158        0.87519        3.20085
H          1.47917        0.33080        3.04060
Pd        -1.31566        1.51092       -0.94701
Cl        -2.96175        2.06777       -2.35877
Cl         0.13200        0.90518       -2.56514
C         -4.86819        3.38233        0.74572
C         -4.05429        0.96121        0.90280
H         -2.93330        4.21474       -1.10638
H         -3.27870        5.61714       -0.09697
H         -1.72392        4.78359        0.03981
H         -5.11076        3.47749       -0.32168
H         -5.50164        4.12162        1.25907
H         -4.15248        0.58054       -0.12281
C         -5.19994        1.93924        1.22214
C         -3.90195       -0.17822        1.88666
H         -3.20726        4.12724        1.94974
H         -5.37095        1.94139        2.30752
H         -6.14145        1.58453        0.77571
H         -3.04917       -0.80947        1.62898
H         -3.73601        0.20107        2.89668
H         -4.79389       -0.80857        1.90998
C         -1.19478       -3.92214        0.15402
C         -1.10614       -3.32821        1.43981
C         -0.69176       -2.00947        1.52748
C         -0.44814       -1.27188        0.39915
C         -0.63941       -1.80977       -0.84539
C         -1.04918       -3.12058       -1.00660
O         -1.38732       -5.32390        0.03112
C         -1.41657       -4.10449        2.72913
H         -0.54266       -1.54068        2.48400
H         -0.44435       -1.18306       -1.69806
C         -1.29135       -3.64982       -2.42809
C          4.49925        0.75316       -0.68584
C          3.81880       -0.48430       -0.81346
C          2.48847       -0.53930       -0.43656
C          1.85783        0.54774        0.10902
C          2.53700        1.71755        0.32584
C          3.87315        1.83972       -0.02149
O          5.78921        0.91592       -1.25735
C          4.47672       -1.74569       -1.39410
H          1.91596       -1.43777       -0.58472
H          2.00106        2.54271        0.76249
C          4.60966        3.15153        0.29217
C         -1.92586       -3.15169        3.83461
C         -2.52341       -5.14805        2.49243
C         -0.13742       -4.79323        3.22807
C         -1.80748       -2.51755       -3.34654
C          0.03065       -4.18317       -3.00118
C         -2.36173       -4.75583       -2.43674
C         -0.17763       -6.06941       -0.02899
H         -2.25337       -3.71445        4.70847
H         -1.14757       -2.46748        4.16917
H         -2.77208       -2.56376        3.48099
H         -3.41991       -4.67295        2.09539
H         -2.20641       -5.90813        1.78256
H         -2.78985       -5.65419        3.41996
H         -0.32374       -5.34129        4.15132
H          0.24439       -5.49636        2.49186
H          0.64439       -4.05936        3.42258
H         -1.04268       -1.76461       -3.53033
H         -2.10605       -2.91223       -4.31731
H         -2.67294       -2.02422       -2.90493
H          0.42853       -4.99011       -2.39021
H         -0.10716       -4.56248       -4.01333
H          0.78106       -3.39366       -3.03625
H         -3.28922       -4.39487       -1.99351
H         -2.57684       -5.08508       -3.45300
H         -2.03904       -5.62588       -1.87076
H         -0.11688       -6.59525       -0.98159
H          0.68322       -5.40773        0.07588
H         -0.16638       -6.81050        0.77015
C          5.77039        1.37489       -2.60331
C          5.98048       -1.78843       -1.06866
C          3.84710       -3.02012       -0.78447
C          4.25985       -1.77407       -2.91479
C          6.10369        2.89896        0.56504
C          4.44309        4.12207       -0.88690
C          4.02729        3.81305        1.56208
H          6.51083       -0.96025       -1.53179
H          6.14181       -1.72800        0.00711
H          6.43323       -2.71205       -1.42840
H          4.39636       -3.90893       -1.09421
H          3.86448       -2.97855        0.30428
H          2.81545       -3.15579       -1.10583
H          4.70737       -0.90631       -3.39323
H          4.70101       -2.66742       -3.35604
H          3.19607       -1.76980       -3.15161
H          6.60747        2.50706       -0.31494
H          6.61089        3.81986        0.85173
H          6.22972        2.17706        1.37123
H          3.38884        4.32900       -1.06934
H          4.94387        5.06904       -0.68722
H          4.86092        3.70736       -1.80101
H          3.01249        4.17337        1.40049
H          4.62741        4.67239        1.86045
H          4.01352        3.10937        2.39404
H          4.74338        1.52509       -2.93884
H          6.31854        2.31396       -2.67724
H          6.25981        0.64388       -3.24662
