87
-129.18493833
P         -1.63098       -0.45688       -0.04509
P          1.63204        0.37007       -0.12834
C         -1.40918        0.80812       -1.31955
C          1.42029       -0.72709       -1.53500
C         -0.43888        0.73936       -2.31785
C         -0.26187        1.84647       -3.17025
C         -1.07303        2.95765       -3.01944
C         -2.03770        3.00363       -2.03742
C         -2.19468        1.92868       -1.18499
C          2.24832       -1.81412       -1.67035
C          2.10325       -2.66549       -2.74786
C          1.12528       -2.41791       -3.68800
C          0.27687       -1.32965       -3.56822
C          0.42741       -0.45990       -2.46968
Cl         1.24096        1.37262        2.93382
Cl        -1.28238       -0.51098        3.23215
H         -2.65652        3.87877       -1.92503
H         -2.93234        1.96800       -0.40040
H          3.01591       -1.99419       -0.93617
H          2.75166       -3.51987       -2.85266
H         -0.93376        3.79895       -3.67706
H          1.01006       -3.07864       -4.53038
C         -0.76891       -4.75830       -1.22870
C         -1.55939       -3.97591       -2.05917
C         -1.81515       -2.66069       -1.68683
C         -1.29788       -2.15595       -0.51698
C         -0.54485       -2.94960        0.31757
C         -0.26934       -4.25422       -0.04416
H         -0.55315       -5.77307       -1.51684
C         -2.08911       -4.52659       -3.33621
H         -2.41068       -2.02509       -2.32086
H         -0.20357       -2.55474        1.26055
H          0.32871       -4.87746        0.60033
C         -5.76210       -0.10269        1.83526
C         -5.49910       -1.10989        0.92796
C         -4.24265       -1.21694        0.36156
C         -3.25913       -0.31991        0.70812
C         -3.52038        0.68588        1.60990
C         -4.77911        0.81290        2.18456
H         -6.73704       -0.02297        2.28522
H         -6.27065       -1.81458        0.66417
H         -4.02198       -2.00070       -0.34469
H         -2.73564        1.36978        1.88860
C         -5.04296        1.87832        3.18948
C          5.01748       -1.09653        2.54340
C          5.10559        0.14616        1.94751
C          4.08652        0.59111        1.12682
C          2.98967       -0.20851        0.90782
C          2.89772       -1.44500        1.50416
C          3.91613       -1.91264        2.32534
H          5.80542       -1.44126        3.19120
H          5.96412        0.77222        2.12756
H          4.13554        1.56420        0.66638
H          2.02666       -2.05493        1.33374
C          3.79796       -3.23748        2.99259
C          2.29309        4.63393       -1.54067
C          3.08569        3.61508       -2.03221
C          2.89211        2.31802       -1.59408
C          1.91621        2.05668       -0.66137
C          1.13184        3.06978       -0.16155
C          1.29978        4.37542       -0.60598
H          2.44049        5.64425       -1.88235
H          3.84994        3.82859       -2.76140
H          3.48857        1.50634       -1.98043
H          0.37768        2.84734        0.57441
C          0.45028        5.47029       -0.06418
Pd        -0.01814        0.17423        1.50634
C          0.78648        1.85615       -4.22857
C         -0.76693       -1.09836       -4.60505
H          1.52680        1.07209       -4.06654
H          0.34547        1.70699       -5.21482
H          1.31725        2.80916       -4.23960
H         -1.52745       -0.39833       -4.25733
H         -0.32582       -0.69224       -5.51608
H         -1.27179       -2.02936       -4.86546
H         -2.49403       -5.52911       -3.19078
H         -2.88866       -3.90128       -3.73607
H         -1.30134       -4.58776       -4.08831
H         -6.10633        2.11517        3.24599
H         -4.71401        1.56308        4.18064
H         -4.51135        2.79651        2.93529
H          3.25031       -3.94418        2.36721
H          4.78017       -3.66638        3.19602
H          3.26655       -3.14574        3.94085
H         -0.55220        5.10830        0.16933
H          0.88221        5.87886        0.85038
H          0.34888        6.28410       -0.78358
