58
-89.86732158
P          1.50195        0.34427        0.74404
C          1.80856        2.02533        0.19189
C          1.78126        3.08650        1.06843
C          2.01147        4.36734        0.59945
C          2.27099        4.57491       -0.74129
C          2.30667        3.50584       -1.61460
C          2.07680        2.22719       -1.14239
H          2.10539        1.37546       -1.80345
H          1.57536        2.91297        2.11204
C          3.05314       -0.55959        0.82429
C          3.09709       -1.91586        0.59444
C          4.30342       -2.58778        0.67290
C          5.45761       -1.89706        0.98527
C          5.40904       -0.53691        1.21839
C          4.20096        0.13264        1.13784
H          4.14645        1.19527        1.31446
H          2.19268       -2.44329        0.33736
C          0.74819        0.28205        2.42286
C          0.20265       -1.11618        2.69983
C         -1.25564       -1.30649        2.30024
P         -1.70246       -0.59090        0.65918
C         -3.16180       -1.41700        0.01525
C         -3.20602       -2.79196       -0.02371
C         -4.31787       -3.42961       -0.54490
C         -5.37529       -2.68477       -1.02855
C         -5.32267       -1.30534       -0.99611
C         -4.20968       -0.67100       -0.47442
H         -4.15055        0.40516       -0.45253
H         -2.36418       -3.36238        0.33530
C         -2.03895        1.16407        0.88984
C         -2.96952        1.53959        1.83241
C         -3.22302        2.88142        2.05559
C         -2.54051        3.84016        1.33380
C         -1.61234        3.45995        0.38593
C         -1.36551        2.11885        0.16265
H         -0.64579        1.82210       -0.58042
H         -3.49917        0.78196        2.38817
Pd         0.10146       -0.66360       -0.80853
Cl         1.89022       -0.94046       -2.13988
Cl        -1.33091       -1.53976       -2.30075
H         -1.52877       -2.36389        2.29385
H         -1.91598       -0.82200        3.02212
H          0.82923       -1.84571        2.16768
H          0.32224       -1.36807        3.76555
H          1.54136        0.55844        3.12197
H         -0.03358        1.03841        2.50496
H          1.98596        5.20234        1.28020
H          2.51348        3.66561       -2.65999
H          4.34191       -3.64832        0.48559
H          6.30953        0.00311        1.46074
H         -4.35419       -4.50606       -0.57984
H         -6.14419       -0.72333       -1.38035
H         -3.95092        3.17668        2.79334
H         -1.07562        4.20616       -0.17662
H          2.44907        5.57330       -1.10628
H          6.39821       -2.42001        1.04469
H         -6.24021       -3.18085       -1.43788
H         -2.73375        4.88593        1.50911
