111
-148.55439287
P         -2.11327        2.15676        1.50474
P          0.13097        0.12796        0.61223
C         -1.04725        1.40011        2.75522
C         -0.07625        0.50517        2.36287
C         -2.08157        4.00039        1.63060
C         -1.15792        4.60655        0.59586
C         -1.19512        1.71990        4.08950
H         -1.94336        2.43732        4.38506
C         -0.37744        1.12394        5.03396
H         -0.49274        1.37021        6.07688
C          0.58576        0.21460        4.64083
H          1.22153       -0.25077        5.37599
C          0.73824       -0.09409        3.30080
H          1.48833       -0.79895        2.98030
Pd        -1.48381        1.31805       -0.55142
Cl        -3.02280        2.68112       -1.45018
Cl        -0.77930        0.42957       -2.48320
C         -3.56579        4.37537        1.47222
C         -3.92461        1.84686        1.74953
H         -1.48233        4.34742       -0.41332
H         -1.13987        5.69661        0.66606
H         -0.13497        4.24123        0.71515
H         -3.77509        4.54052        0.40624
H         -3.77397        5.33626        1.96720
H         -4.28748        1.45812        0.78860
C         -4.49664        3.25413        2.01530
C         -4.18416        0.85455        2.86445
H         -1.73443        4.23344        2.64579
H         -4.62708        3.38359        3.09831
H         -5.50613        3.34280        1.58649
H         -3.86029        1.25586        3.82570
H         -5.24740        0.61852        2.95025
H         -3.63950       -0.07785        2.70532
C         -1.24307       -4.10030       -0.37055
C         -2.13665       -3.18144        0.23864
C         -1.65959       -1.92163        0.56426
C         -0.38943       -1.53858        0.21776
C          0.42489       -2.37351       -0.50217
C          0.01775       -3.65215       -0.84059
O         -1.58405       -5.47554       -0.46388
C         -3.60157       -3.52541        0.54940
H         -2.27981       -1.21506        1.08852
H          1.39024       -2.01009       -0.80491
C          0.94930       -4.53740       -1.68236
C          4.27843        1.02866       -1.04732
C          4.11097       -0.03248       -0.12127
C          2.83894       -0.28351        0.36590
C          1.77761        0.51254        0.01955
C          1.95903        1.60894       -0.78263
C          3.20381        1.91740       -1.30453
O          5.50562        1.17605       -1.74690
C          5.27388       -0.93159        0.32762
H          2.65721       -1.12546        1.01081
H          1.10287        2.21571       -1.02013
C          3.35313        3.17387       -2.17610
C         -4.49960       -2.28820        0.32255
C         -4.13243       -4.63232       -0.37999
C         -3.71636       -3.96908        2.01523
C          1.79551       -3.67367       -2.64544
C          1.89391       -5.31028       -0.74988
C          0.14371       -5.52050       -2.55107
C         -1.21493       -6.23167        0.68235
H         -5.55262       -2.54871        0.42616
H         -4.29287       -1.50015        1.04290
H         -4.35101       -1.88149       -0.67746
H         -3.60745       -5.57064       -0.22079
H         -5.19262       -4.81509       -0.20656
H         -4.00272       -4.35056       -1.42439
H         -3.38088       -3.17797        2.68547
H         -4.74730       -4.21310        2.27022
H         -3.10379       -4.84788        2.20703
H          2.36387       -4.30174       -3.33101
H          1.15766       -3.02011       -3.23995
H          2.51329       -3.05483       -2.10981
H          2.58279       -5.93278       -1.32031
H          2.48285       -4.62387       -0.14187
H          1.33658       -5.95670       -0.07542
H         -0.56634       -4.98380       -3.17936
H          0.80042       -6.10035       -3.19910
H         -0.41692       -6.22224       -1.93818
H         -0.65314       -5.61108        1.38162
H         -2.10838       -6.61265        1.17650
H         -0.60188       -7.07953        0.37652
C          5.56170        0.45509       -2.97157
C          5.03929       -1.44839        1.76541
C          5.37711       -2.13995       -0.61552
C          6.60301       -0.15481        0.34291
C          4.76766        3.76912       -2.05668
C          3.04956        2.81332       -3.63829
C          2.36279        4.27192       -1.72410
H          4.83611       -0.62187        2.44590
H          4.20405       -2.14556        1.81272
H          5.91771       -1.97752        2.13425
H          4.45854       -2.72530       -0.59282
H          5.54415       -1.82578       -1.64306
H          6.19938       -2.79320       -0.32472
H          7.41429       -0.77348        0.72574
H          6.88296        0.17294       -0.65505
H          6.52331        0.72923        0.97464
H          5.52078        3.08203       -2.43411
H          4.85246        4.69516       -2.62478
H          5.00565        3.98640       -1.01596
H          2.03957        2.41526       -3.73425
H          3.13040        3.68904       -4.28163
H          3.73860        2.05846       -4.00942
H          2.55507        5.20654       -2.25044
H          2.45807        4.46397       -0.65570
H          1.33036        3.99570       -1.93313
H          5.73891        1.14644       -3.79526
H          6.38703       -0.25600       -2.94036
H          4.62652       -0.08028       -3.14091
