59
-75.80318321
Cl         1.32832        0.67400        2.47134
P          1.47537        0.14121       -0.76532
P         -1.68108       -0.22634       -0.80818
C          0.52914        0.31912       -2.34006
H          0.22610        1.36494       -2.43391
H          1.19799        0.09604       -3.17711
C         -0.67260       -0.58089       -2.31324
H         -0.36412       -1.62819       -2.27713
H         -1.30624       -0.45750       -3.19698
C          2.49156       -1.41125       -0.75404
H          2.29411       -1.91593       -1.70740
C          2.83639        1.39213       -0.63940
H          2.90800        1.65707        0.42272
C         -2.97689       -1.51794       -0.49478
H         -3.01014       -1.64718        0.59409
C         -2.77735        1.25339       -1.06067
H         -2.65769        1.54432       -2.11126
C          3.94733       -0.90791       -0.68393
H          4.31662       -1.04155        0.34195
H          4.59993       -1.53260       -1.31206
C          4.07312        0.58808       -1.07496
H          4.18502        0.67535       -2.16474
H          4.98688        1.02892       -0.64763
C         -4.26350       -0.83515       -0.98759
H         -4.40630       -1.07464       -2.05060
H         -5.14069       -1.25350       -0.47031
C         -4.19390        0.70268       -0.80679
H         -4.49124        0.95844        0.21957
H         -4.92382        1.20791       -1.45725
C          2.11570       -2.31213        0.41765
H          1.02919       -2.45807        0.43358
H          2.34123       -1.78393        1.35399
C          2.58504        2.64189       -1.47586
H          2.48636        2.35024       -2.52949
H          1.61441        3.07381       -1.20268
C         -2.70704       -2.86050       -1.16763
H         -3.61515       -3.47628       -1.10551
H         -2.54687       -2.69550       -2.24079
C         -2.43103        2.42507       -0.14537
H         -3.24749        3.15962       -0.18544
H         -2.41674        2.06803        0.89279
C          2.82147       -3.65935        0.38580
H          2.58276       -4.20681       -0.52802
H          2.53715       -4.29046        1.23090
H          3.90602       -3.54093        0.41574
C          3.67709        3.68993       -1.32083
H          3.47206        4.58619       -1.91085
H          4.64702        3.30404       -1.63950
H          3.78036        3.99898       -0.27894
C         -1.53469       -3.61323       -0.56162
H         -1.68600       -3.78865        0.50519
H         -0.60904       -3.04973       -0.66570
H         -1.37951       -4.58449       -1.03702
C         -1.11616        3.10246       -0.48925
H         -1.11754        3.47283       -1.51615
H         -0.90721        3.95029        0.16717
H         -0.28205        2.40844       -0.39564
Cl        -1.81121       -0.11607        2.37862
Pd        -0.13584        0.05099        0.89311
