111
-148.55650873
P         -2.43141        2.24129        0.31476
P         -0.01403        0.21281        0.58210
C         -1.83268        1.76851        1.95677
C         -0.76288        0.90769        2.06583
C         -2.66967        4.07267        0.19900
C         -1.56496        4.72438       -0.60398
C         -2.43663        2.26562        3.09357
H         -3.27422        2.93774        3.00051
C         -1.96584        1.89305        4.34097
H         -2.43712        2.27897        5.23011
C         -0.89381        1.02745        4.44768
H         -0.52867        0.73624        5.41876
C         -0.29059        0.53162        3.30543
H          0.54210       -0.15143        3.36924
Pd        -1.00604        1.26455       -1.21633
Cl        -2.20012        2.31242       -2.80520
Cl         0.42668        0.29752       -2.64485
C         -4.07602        4.19885       -0.41466
C         -4.15031        1.66458       -0.05802
H         -1.53740        4.32736       -1.61981
H         -1.70798        5.80503       -0.67633
H         -0.58661        4.54068       -0.15370
H         -3.97800        4.27620       -1.50628
H         -4.55299        5.13715       -0.09295
H         -4.11050        1.23845       -1.06952
C         -4.96447        2.97196       -0.06142
C         -4.61910        0.62943        0.94133
H         -2.66910        4.44718        1.23097
H         -5.40814        3.11530        0.93338
H         -5.81539        2.89101       -0.75471
H         -3.96367       -0.24370        0.93949
H         -4.61803        1.03703        1.95363
H         -5.63464        0.29210        0.72126
C         -1.36588       -4.08681       -0.07511
C         -0.22552       -3.59724       -0.76204
C          0.14912       -2.28017       -0.55435
C         -0.49909       -1.49604        0.36254
C         -1.53732       -1.99586        1.10472
C         -1.97610       -3.29845        0.93381
O         -1.92326       -5.34800       -0.41650
C          0.59328       -4.45059       -1.74315
H          0.94279       -1.83661       -1.13014
H         -2.00604       -1.34653        1.82298
C         -3.11511       -3.83492        1.81522
C          4.47180        0.93014        0.28031
C          3.99962       -0.31384        0.77213
C          2.63098       -0.51476        0.84781
C          1.75260        0.48391        0.51734
C          2.20445        1.72220        0.14293
C          3.55987        1.99072        0.04666
O          5.85384        1.09992       -0.00136
C          4.95344       -1.44320        1.19330
H          2.22877       -1.46333        1.15799
H          1.47560        2.48035       -0.08842
C          4.00954        3.40747       -0.34374
C          0.53808       -5.94385       -1.37257
C          0.06177       -4.23317       -3.16795
C          2.08242       -4.03851       -1.70081
C         -3.17537       -3.07638        3.16058
C         -4.45779       -3.64814        1.09255
C         -2.89416       -5.32276        2.14299
C         -2.85944       -5.29744       -1.48604
H          1.17302       -6.53482       -2.03221
H          0.87747       -6.09708       -0.34868
H         -0.47162       -6.33776       -1.44975
H         -0.98502       -4.51726       -3.24637
H          0.14079       -3.18390       -3.45161
H          0.62689       -4.82174       -3.89011
H          2.68909       -4.71514       -2.30219
H          2.23724       -3.03527       -2.09459
H          2.45931       -4.06934       -0.67899
H         -3.48477       -2.04088        3.02511
H         -3.89654       -3.53972        3.83350
H         -2.20431       -3.08407        3.65501
H         -4.48399       -4.20375        0.15897
H         -5.28514       -3.99481        1.71127
H         -4.62861       -2.59808        0.85859
H         -2.91491       -5.93297        1.24301
H         -1.92832       -5.47039        2.62502
H         -3.66853       -5.69579        2.81279
H         -3.05977       -4.26281       -1.76742
H         -2.46798       -5.83763       -2.34750
H         -3.78766       -5.77858       -1.17780
C          6.21908        0.78559       -1.33943
C          5.33158       -2.28191       -0.03670
C          6.22079       -0.87067        1.85376
C          4.28235       -2.37251        2.22983
C          2.99862        4.46054        0.16571
C          5.37036        3.75488        0.28650
C          4.08792        3.50867       -1.87490
H          5.97986       -3.11255        0.24127
H          4.44146       -2.69203       -0.51139
H          5.85448       -1.68366       -0.77792
H          6.87355       -1.66868        2.20663
H          6.79138       -0.26339        1.15512
H          5.95983       -0.24378        2.70576
H          4.99807       -3.09467        2.62208
H          3.89186       -1.79904        3.07015
H          3.46397       -2.94082        1.78992
H          3.37927        5.46960        0.00912
H          2.04769        4.39407       -0.36051
H          2.81163        4.33493        1.23187
H          5.65735        4.78103        0.05818
H          5.32948        3.64716        1.36987
H          6.15847        3.10393       -0.08261
H          4.39677        4.50640       -2.18553
H          3.11701        3.30023       -2.32393
H          4.79838        2.79400       -2.28272
H          5.36050        0.39328       -1.88603
H          6.59140        1.67921       -1.83958
H          7.01850        0.04475       -1.33322
