171
-217.84860565
P         -1.61702        0.40032       -0.26789
P          1.61513       -0.38720       -0.26258
C         -0.86579        1.36401       -1.58239
C          0.86312       -1.35089       -1.57612
C         -0.08819        0.74534       -2.55493
C          0.53613        1.54619       -3.53033
C          0.34272        2.91765       -3.50612
C         -0.44289        3.50919       -2.53934
C         -1.04228        2.72578       -1.57305
C          1.03957       -2.71258       -1.56378
C          0.44635       -3.49699       -2.53309
C         -0.33362       -2.90649       -3.50515
C         -0.52750       -1.53509       -3.53170
C          0.09130       -0.73312       -2.55370
Cl         1.60502        0.43412        2.89625
Cl        -1.54283       -0.38040        2.96726
C         -1.37645       -0.93713       -4.59827
C          1.39136        0.94742       -4.59137
H         -0.58833        4.57702       -2.53563
H         -1.65154        3.17798       -0.80714
H          1.64385       -3.16349       -0.79298
H          0.59318       -4.56460       -2.52825
H          0.82077        3.52481       -4.25630
H         -0.80685       -3.51451       -4.25768
C         -3.88717       -3.22996       -1.72038
C         -2.91733       -3.39657       -0.74024
C         -2.22545       -2.26985       -0.31300
C         -2.48247       -1.04491       -0.87614
C         -3.43057       -0.89985       -1.85988
C         -4.16243       -1.99756       -2.29851
H         -4.46174       -4.08416       -2.02756
H         -1.48883       -2.33338        0.46908
H         -3.60170        0.08094       -2.27025
C         -4.47892        2.86950        2.24774
C         -4.99219        1.89194        1.40609
C         -4.09340        1.16142        0.64002
C         -2.74551        1.41620        0.70544
C         -2.25749        2.39552        1.53615
C         -3.11890        3.13685        2.33558
H         -5.15748        3.42847        2.86562
H         -4.43961        0.37307       -0.00337
H         -1.19466        2.55977        1.57533
C          4.43701       -2.90472        2.24928
C          3.06959       -3.10899        2.38052
C          2.21965       -2.35474        1.58074
C          2.72666       -1.41651        0.71491
C          4.08168       -1.21857        0.61172
C          4.96864       -1.96806        1.37326
H          5.10780       -3.48352        2.85732
H          1.15231       -2.47484        1.64749
H          4.44372       -0.46085       -0.05906
C          3.91719        3.21285       -1.74139
C          2.94625        3.39446       -0.76496
C          2.24787        2.27575       -0.32799
C          2.49785        1.04405       -0.87927
C          3.44471        0.88469       -1.86199
C          4.18434        1.97374       -2.30914
H          4.49883        4.06024       -2.05399
H          1.51066        2.35179        0.45230
H          3.60720       -0.09983       -2.26681
Pd        -0.00412        0.04900        1.37795
C         -2.41456       -5.80567       -1.25410
C         -2.67613       -4.78387       -0.13122
C         -3.91998       -5.20209        0.67233
C         -1.45791       -4.77877        0.81044
H         -1.56590       -5.49842       -1.86378
H         -2.19420       -6.78995       -0.84125
H         -3.27781       -5.90844       -1.91014
H         -3.77863       -6.18104        1.12998
H         -4.12409       -4.48363        1.46606
H         -4.80135       -5.25385        0.03386
H         -1.26871       -5.77702        1.20498
H         -0.56098       -4.45279        0.28411
H         -1.62387       -4.11558        1.65908
C         -6.63726       -2.15609       -2.62773
C         -5.29557       -1.87367       -3.32781
C         -5.08833       -2.89382       -4.46411
C         -5.35026       -0.46194       -3.94363
H         -6.80383       -1.45099       -1.81440
H         -7.46902       -2.06808       -3.32646
H         -6.65745       -3.16092       -2.20697
H         -4.12810       -2.74270       -4.95452
H         -5.11541       -3.91694       -4.09179
H         -5.86861       -2.79748       -5.21894
H         -4.40899       -0.20897       -4.43048
H         -6.13873       -0.39743       -4.69333
H         -5.55885        0.29111       -3.18407
C         -6.96756        1.15289        2.75789
C         -6.50359        1.62603        1.36851
C         -6.86234        0.53957        0.33572
C         -7.24177        2.92208        0.98550
H         -8.03574        0.93658        2.76035
H         -6.43807        0.24665        3.05139
H         -6.77822        1.91093        3.51706
H         -7.93896        0.37223        0.30728
H         -6.54686        0.83372       -0.66513
H         -6.38847       -0.41000        0.58400
H         -8.31726        2.75543        0.92710
H         -7.06697        3.71001        1.71704
H         -6.90325        3.28479        0.01510
C         -3.25029        5.54960        3.01511
C         -2.61133        4.18579        3.33468
C         -1.08020        4.33753        3.26839
C         -2.99453        3.74897        4.76046
H         -4.33531        5.51034        3.10308
H         -2.88878        6.31880        3.69737
H         -3.00766        5.85884        1.99854
H         -0.58036        3.39823        3.50475
H         -0.76845        4.65807        2.27569
H         -0.73250        5.08473        3.98153
H         -2.62813        4.46146        5.49924
H         -4.07529        3.67487        4.87494
H         -2.56640        2.77324        4.98971
C          3.05379       -5.52168        3.06361
C          2.54513       -4.11265        3.41678
C          1.00573       -4.14018        3.44990
C          3.04963       -3.70843        4.81467
H          2.68386       -6.25971        3.77514
H          2.71761       -5.81348        2.06872
H          4.14233       -5.56353        3.07457
H          0.59956       -3.15832        3.69292
H          0.60609       -4.45329        2.48725
H          0.64538       -4.84291        4.20096
H          2.72112       -2.69928        5.06280
H          2.66778       -4.38568        5.57837
H          4.13746       -3.72834        4.86609
C          6.86445       -0.69858        0.24755
C          6.48863       -1.76996        1.28992
C          7.15469       -3.09771        0.88474
C          7.01650       -1.31992        2.66432
H          6.43431        0.26862        0.50717
H          7.94581       -0.57391        0.19242
H          6.51343       -0.97943       -0.74521
H          6.77290       -3.44167       -0.07639
H          8.23478       -2.98131        0.79691
H          6.96284       -3.87840        1.61984
H          8.09249       -1.14950        2.63270
H          6.53606       -0.39235        2.97507
H          6.81979       -2.07044        3.42900
C          3.94561        5.20142        0.64759
C          2.70922        4.78845       -0.16971
C          1.47721        4.80201        0.75431
C          2.47192        5.80402       -1.30380
H          3.80761        6.18559        1.09495
H          4.13159        4.48777        1.45007
H          4.83612        5.23891        0.02085
H          1.62366        4.14723        1.61302
H          1.28978        5.80592        1.13505
H          0.58619        4.47702        0.21756
H          2.25220        6.79272       -0.90131
H          3.34570        5.89651       -1.94727
H          1.63037        5.49818       -1.92414
C          5.12761        2.85316       -4.47497
C          5.31786        1.83267       -3.33590
C          5.35455        0.41928       -3.94939
C          6.66142        2.09805       -2.63291
H          4.16658        2.71440       -4.96747
H          5.16845        3.87673       -4.10516
H          5.90823        2.74406       -5.22772
H          5.55376       -0.33525       -3.18886
H          4.41004        0.17751       -4.43566
H          6.14202        0.34354       -4.69910
H          6.69377        3.10321       -2.21366
H          6.81636        1.39204       -1.81803
H          7.49369        1.99780       -3.32936
H         -1.69667        0.07197       -4.33562
H          2.29146        1.54239       -4.74340
H         -2.27318       -1.53486       -4.75909
H         -0.83561       -0.88590       -5.54420
H          0.85802        0.90040       -5.54177
H          1.70581       -0.06343       -4.32853
