171
-217.83574635
P         -1.45741        0.23494       -0.42027
P          1.64538       -0.74062        0.40707
C         -0.40042        1.03421       -1.64857
C          1.04331       -1.74318       -0.97536
C          0.47528        0.24050       -2.37891
C          1.32924        0.84473       -3.32188
C          1.24000        2.21067       -3.53142
C          0.36464        2.98486       -2.79971
C         -0.44619        2.39268       -1.85193
C          1.06172       -3.09913       -0.74656
C          0.56222       -3.97337       -1.69263
C          0.02009       -3.47627       -2.85818
C         -0.03035       -2.11377       -3.09880
C          0.50940       -1.22555       -2.15004
Cl         0.58657       -1.24263        3.37832
Cl        -2.39577       -1.60037        2.27607
C         -0.67074       -1.62400       -4.35028
C          2.31281        0.03876       -4.09658
H          0.32087        4.04974       -2.96004
H         -1.09761        3.00178       -1.25081
H          1.46280       -3.47123        0.18477
H          0.58624       -5.03598       -1.51424
H          1.86900        2.66742       -4.27636
H         -0.38083       -4.15003       -3.59650
C         -4.20247       -2.63606       -2.60155
C         -3.49064       -3.10376       -1.50400
C         -2.66545       -2.20946       -0.83562
C         -2.55665       -0.90831       -1.25742
C         -3.26175       -0.46511       -2.34882
C         -4.10640       -1.32162       -3.04358
H         -4.85361       -3.31796       -3.11519
H         -2.10582       -2.52239        0.02678
H         -3.14714        0.55643       -2.66779
C         -4.08315        3.37123        1.59558
C         -3.43878        2.43857        2.39569
C         -2.64476        1.48805        1.76970
C         -2.50134        1.46723        0.40237
C         -3.17902        2.38022       -0.37033
C         -3.96417        3.36729        0.21247
H         -4.70530        4.11330        2.06118
H         -2.15661        0.73679        2.35907
H         -3.09112        2.32197       -1.44046
C          5.57566       -2.58109        1.71968
C          4.66912       -2.20274        2.70330
C          3.45924       -1.66142        2.29423
C          3.17109       -1.51247        0.96238
C          4.07541       -1.89705        0.00246
C          5.30283       -2.43872        0.36454
H          6.52172       -2.99887        2.00844
H          2.72362       -1.36670        3.01985
H          3.81132       -1.77168       -1.03405
C          2.77506        3.61574       -0.13731
C          3.55565        2.62519       -0.71701
C          3.14938        1.30712       -0.55587
C          2.02091        1.00401        0.16584
C          1.27059        1.99815        0.75170
C          1.62947        3.33217        0.59574
H          3.08076        4.64024       -0.24376
H          3.72330        0.50153       -0.97857
H          0.40309        1.72906        1.32659
Pd        -0.45629       -0.85467        1.42859
C         -3.26017       -5.50599       -2.19532
C         -3.64981       -4.55999       -1.04506
C         -5.11546       -4.80488       -0.64321
C         -2.75214       -4.87379        0.16877
H         -3.35511       -6.54838       -1.89171
H         -3.89487       -5.35398       -3.06742
H         -2.22782       -5.33702       -2.49883
H         -5.41171       -4.12789        0.15784
H         -5.78868       -4.64297       -1.48424
H         -5.25865       -5.82674       -0.29241
H         -1.70089       -4.71390       -0.06882
H         -3.01193       -4.24731        1.02181
H         -2.86659       -5.91286        0.47673
C         -5.72389       -1.89471       -4.92473
C         -4.93069       -0.77773       -4.21972
C         -3.99684       -0.12152       -5.25467
C         -5.92374        0.27036       -3.68528
H         -6.28109       -1.49681       -5.77280
H         -5.05676       -2.67009       -5.30118
H         -6.44288       -2.35490       -4.24732
H         -4.56651        0.27449       -6.09520
H         -3.43397        0.70333       -4.81972
H         -3.28428       -0.84615       -5.64673
H         -6.59108       -0.17290       -2.94645
H         -5.40104        1.09783       -3.20734
H         -6.53360        0.67889       -4.49083
C         -2.77171        1.39124        4.61907
C         -3.64712        2.44959        3.91733
C         -5.12445        2.14207        4.22000
C         -3.27868        3.83311        4.48464
H         -3.03042        0.38483        4.29086
H         -1.71417        1.55889        4.41587
H         -2.91059        1.42877        5.69928
H         -5.40494        1.17033        3.81397
H         -5.30840        2.12580        5.29406
H         -5.78106        2.89111        3.77864
H         -2.23464        4.06823        4.28190
H         -3.89179        4.62016        4.04771
H         -3.42360        3.86110        5.56447
C         -6.19605        4.31595       -0.42121
C         -4.67516        4.44350       -0.61950
C         -4.36213        4.30230       -2.12234
C         -4.20125        5.83438       -0.15708
H         -6.54198        3.32888       -0.72778
H         -6.47189        4.45747        0.62315
H         -6.73050        5.05993       -1.01169
H         -4.70592        3.34294       -2.50724
H         -4.86055        5.08353       -2.69608
H         -3.29178        4.38723       -2.30982
H         -4.44870        6.01125        0.88888
H         -3.12060        5.92745       -0.26530
H         -4.66893        6.62217       -0.74736
C          3.88521       -3.28230        4.82521
C          4.95163       -2.36078        4.20401
C          4.89561       -0.97722        4.87814
C          6.34062       -2.97528        4.46244
H          2.88593       -2.86311        4.71360
H          3.89307       -4.25953        4.34300
H          4.06787       -3.42876        5.88954
H          5.11089       -1.05324        5.94377
H          5.62614       -0.30221        4.43272
H          3.91119       -0.52357        4.76905
H          6.42034       -3.96638        4.01621
H          7.13042       -2.34595        4.05261
H          6.52411       -3.07971        5.53175
C          7.63489       -2.04638       -0.46909
C          6.34579       -2.86181       -0.67952
C          5.84334       -2.61604       -2.11642
C          6.64674       -4.36309       -0.51858
H          8.06077       -2.22590        0.51736
H          8.38878       -2.31014       -1.21065
H          7.43378       -0.97892       -0.55722
H          5.63327       -1.55985       -2.28402
H          6.59302       -2.92209       -2.84593
H          4.93598       -3.18531       -2.31779
H          7.37065       -4.69771       -1.26143
H          7.05563       -4.58200        0.46710
H          5.73846       -4.95255       -0.64261
C          4.50999        3.91756       -2.64644
C          4.84668        2.99775       -1.45968
C          5.57262        1.74855       -1.99735
C          5.79396        3.72818       -0.48979
H          4.01498        4.82925       -2.31409
H          5.41263        4.20464       -3.18554
H          3.84711        3.41270       -3.34727
H          5.85029        1.07728       -1.18492
H          4.94436        1.20060       -2.69854
H          6.48656        2.02707       -2.52173
H          6.02304        3.09901        0.37018
H          6.73283        3.98464       -0.98028
H          5.34839        4.65094       -0.12012
C          0.47121        5.52911        0.17631
C          0.84666        4.48363        1.24451
C          1.72517        5.13897        2.32492
C         -0.45224        3.98953        1.90282
H          1.35555        5.96089       -0.29000
H         -0.13607        5.07966       -0.60810
H         -0.10246        6.34474        0.61626
H          2.00591        4.41064        3.08554
H          2.64092        5.54411        1.89564
H          1.19579        5.95473        2.81697
H         -1.00723        4.82187        2.33486
H         -1.09716        3.51177        1.16811
H         -0.24661        3.27708        2.70118
H         -0.88431       -0.55560       -4.29910
H          1.88739       -0.28824       -5.04612
H         -1.61573       -2.14084       -4.52433
H         -0.02799       -1.80100       -5.21370
H          2.62208       -0.84764       -3.54044
H          3.21020        0.61913       -4.31580
