111
-148.55478367
P         -2.67144        1.77339        0.68842
P          0.24631        0.51708        0.41245
C         -1.65208        1.49093        2.16590
C         -0.36764        1.00697        2.03608
C         -3.83130        3.19338        0.95760
C         -3.67254        4.25919       -0.10374
C         -2.16074        1.75373        3.42231
H         -3.17210        2.11121        3.52465
C         -1.37752        1.54058        4.54363
H         -1.77544        1.74674        5.52383
C         -0.08893        1.06128        4.40880
H          0.51980        0.89184        5.28170
C          0.41505        0.78756        3.15038
H          1.41105        0.39200        3.02852
Pd        -1.15862        1.65308       -1.05657
Cl        -2.73961        2.41924       -2.43960
Cl         0.46792        1.28820       -2.56647
C         -5.21648        2.51175        0.95705
C         -3.87685        0.41203        0.34677
H         -2.64247        4.61930       -0.15535
H         -3.93370        3.86413       -1.08611
H         -4.32274        5.11625        0.08708
H         -5.96415        3.20194        0.53974
H         -5.53891        2.31755        1.99058
H         -3.56071       -0.06856       -0.58951
C         -5.20501        1.17420        0.16324
C         -3.89634       -0.59255        1.47820
H         -3.59569        3.61200        1.94496
H         -6.04339        0.53235        0.47139
H         -5.36809        1.38479       -0.90415
H         -2.91128       -1.03828        1.62879
H         -4.18531       -0.11205        2.41477
H         -4.60635       -1.40039        1.28583
C         -1.51492       -3.61265       -0.34630
C         -1.20208       -2.76934       -1.44507
C         -0.64278       -1.53287       -1.17861
C         -0.34699       -1.14641        0.10147
C         -0.52256       -2.00952        1.15100
C         -1.05836       -3.27156        0.95527
O         -2.35568       -4.73985       -0.53278
C         -1.46781       -3.13233       -2.91475
H         -0.44689       -0.83833       -1.97670
H         -0.25702       -1.67799        2.14048
C         -1.11612       -4.22090        2.16328
C          4.78688        0.59536        0.08527
C          4.13463       -0.51963        0.67099
C          2.75106       -0.51151        0.73040
C          2.03058        0.57583        0.30948
C          2.66088        1.69988       -0.15452
C          4.04191        1.75497       -0.25041
O          6.17758        0.53680       -0.19756
C          4.89658       -1.74053        1.21032
H          2.21127       -1.36743        1.09745
H          2.05190        2.53168       -0.46399
C          4.70450        3.04588       -0.75639
C         -2.65970       -2.30909       -3.43239
C         -0.21894       -2.79896       -3.76073
C         -1.75490       -4.63153       -3.10457
C          0.25388       -4.21907        2.87705
C         -2.19661       -3.73745        3.14504
C         -1.40721       -5.67458        1.75221
C         -3.72920       -4.43063       -0.36285
H         -2.85788       -2.52770       -4.48125
H         -3.56385       -2.52763       -2.86741
H         -2.46348       -1.24088       -3.34392
H          0.66089       -3.30349       -3.36256
H         -0.35252       -3.12001       -4.79340
H         -0.01497       -1.72973       -3.77867
H         -1.84661       -4.88349       -4.16081
H         -0.95249       -5.23327       -2.67923
H         -2.68272       -4.91960       -2.61603
H          1.04778       -4.49551        2.18377
H          0.49381       -3.24102        3.29093
H          0.26388       -4.93214        3.70098
H         -1.98524       -2.72626        3.49155
H         -3.17898       -3.72970        2.67662
H         -2.24672       -4.38666        4.01876
H         -0.69063       -6.01314        1.00470
H         -1.34719       -6.34478        2.60941
H         -2.40321       -5.77268        1.32706
H         -4.01834       -3.62834       -1.03995
H         -4.32669       -5.31698       -0.57701
H         -3.91686       -4.10955        0.66036
C          6.48570        0.01231       -1.48310
C          6.27355       -1.33490        1.76649
C          4.11826       -2.39825        2.37310
C          5.06137       -2.77447        0.08617
C          3.85577        4.28086       -0.37764
C          6.09252        3.24533       -0.12098
C          4.82414        2.98610       -2.28688
H          6.91486       -0.93376        0.98579
H          6.16647       -0.57090        2.53579
H          6.78595       -2.19005        2.20655
H          3.19451       -2.86088        2.02923
H          4.71241       -3.18244        2.84176
H          3.87028       -1.66345        3.13867
H          5.58996       -3.65814        0.44277
H          4.08918       -3.09155       -0.29067
H          5.62135       -2.36261       -0.74988
H          4.38402        5.20245       -0.62105
H          2.91129        4.30243       -0.91919
H          3.64066        4.29066        0.69057
H          6.53285        4.19275       -0.43080
H          6.02046        3.24407        0.96610
H          6.77943        2.45403       -0.41024
H          3.84199        2.87095       -2.74489
H          5.43579        2.14433       -2.60212
H          5.27594        3.89661       -2.67956
H          7.10759       -0.87633       -1.37668
H          5.57063       -0.24538       -2.01786
H          7.04532        0.75201       -2.05537
