111
-148.55037386
P         -2.64017        2.12116        0.61169
P          0.07899        0.49586        0.44334
C         -1.56065        2.00364        2.06725
C         -0.36262        1.32938        1.97643
C         -3.55955        3.72973        0.61539
C         -3.38227        4.47611       -0.68818
C         -1.93560        2.57510        3.26683
H         -2.88064        3.08746        3.34121
C         -1.10363        2.47520        4.36876
H         -1.39647        2.92180        5.30494
C          0.09943        1.80275        4.27140
H          0.74613        1.72345        5.12969
C          0.46957        1.22389        3.07082
H          1.39831        0.68243        2.97916
Pd        -1.35308        1.36447       -1.16079
Cl        -3.02338        1.95318       -2.52779
Cl         0.13799        0.60025       -2.66250
C         -5.01366        3.29659        0.89696
C         -4.05445        0.92917        0.66148
H         -3.89037        5.44318       -0.66971
H         -2.32616        4.65153       -0.90593
H         -3.79918        3.90375       -1.51772
H         -5.70600        3.99194        0.40026
H         -5.22900        3.38320        1.97213
H         -3.91522        0.23496       -0.17882
C         -5.28141        1.83611        0.43576
C         -4.07416        0.17455        1.97270
H         -3.15412        4.32307        1.44589
H         -6.15097        1.41607        0.96206
H         -5.55166        1.83703       -0.63055
H         -4.89929       -0.54059        2.01301
H         -3.14231       -0.37449        2.12451
H         -4.19029        0.86303        2.81183
C         -1.01455       -3.92288        0.56476
C         -1.04407       -3.16962        1.76701
C         -0.70898       -1.82689        1.70918
C         -0.42865       -1.22158        0.51245
C         -0.50751       -1.92081       -0.66205
C         -0.83696       -3.26393       -0.67825
O         -1.11676       -5.33872        0.60996
C         -1.38145       -3.79995        3.12725
H         -0.64086       -1.23729        2.60606
H         -0.28466       -1.39528       -1.57407
C         -0.95197       -3.98173       -2.03134
C          4.47858        0.75549       -0.69394
C          3.73338        1.94820       -0.50459
C          2.39451        1.84096       -0.16318
C          1.82117        0.61713        0.05867
C          2.56288       -0.53215       -0.02289
C          3.90440       -0.49783       -0.36148
O          5.78426        0.81173       -1.25014
C          4.34222        3.34471       -0.70605
H          1.77215        2.71556       -0.08143
H          2.06959       -1.46982        0.16448
C          4.69324       -1.81595       -0.40570
C         -0.08984       -4.31407        3.78096
C         -2.03028       -2.76002        4.06860
C         -2.39165       -4.95112        2.97024
C         -1.46174       -3.00798       -3.11921
C          0.43269       -4.50142       -2.44732
C         -1.95936       -5.14341       -1.96266
C          0.13568       -6.00419        0.71796
H          0.62003       -3.49965        3.92405
H         -0.29491       -4.75863        4.75449
H          0.39185       -5.06762        3.16246
H         -2.89793       -2.29960        3.59771
H         -2.36448       -3.23156        4.99249
H         -1.33117       -1.97299        4.34703
H         -2.68172       -5.35316        3.94066
H         -3.29186       -4.60495        2.46348
H         -1.97449       -5.76861        2.38751
H         -2.38116       -2.51762       -2.80049
H         -0.72696       -2.23837       -3.35027
H         -1.66982       -3.53922       -4.04756
H          1.14201       -3.67860       -2.53300
H          0.82729       -5.20276       -1.71585
H          0.38645       -5.00877       -3.41054
H         -2.08591       -5.61056       -2.93899
H         -1.63103       -5.91384       -1.26973
H         -2.93307       -4.78698       -1.62826
H          0.94910       -5.27924        0.76924
H          0.14389       -6.62342        1.61483
H          0.28211       -6.65334       -0.14510
C          5.81276        0.72898       -2.66965
C          4.15971        3.76992       -2.17105
C          3.63955        4.38215        0.19908
C          5.83474        3.36139       -0.32891
C          4.11995       -2.83082        0.61075
C          4.58657       -2.42431       -1.81237
C          6.16943       -1.59088       -0.03238
H          4.56846        4.76527       -2.34308
H          4.65878        3.08015       -2.84719
H          3.10325        3.78729       -2.43786
H          2.60937        4.55442       -0.10885
H          3.63744        4.05212        1.23761
H          4.15081        5.34354        0.15443
H          6.24841        4.36619       -0.41112
H          5.97520        3.01944        0.69592
H          6.41638        2.71288       -0.97909
H          4.05726       -2.39037        1.60549
H          3.12679       -3.17356        0.32353
H          4.75513       -3.71398        0.67542
H          3.54486       -2.60989       -2.07283
H          5.00044       -1.75670       -2.56394
H          5.12327       -3.37091       -1.87046
H          6.71495       -2.53382       -0.00482
H          6.24995       -1.12350        0.94846
H          6.66655       -0.94428       -0.75109
H          6.27866        1.62493       -3.07945
H          6.40729       -0.13221       -2.97407
H          4.80073        0.63146       -3.06483
