59
-75.80126897
Cl         1.53615        0.94917        2.32692
P          1.62856       -0.02983       -0.76096
P         -1.55570       -0.10693       -0.82313
C          0.72037        0.52652       -2.26952
H          0.54771        1.60045       -2.17696
H          1.36770        0.37794       -3.13886
C         -0.57975       -0.22139       -2.39631
H         -0.39006       -1.27826       -2.59687
H         -1.19497        0.15441       -3.21963
C          2.34796       -1.71033       -1.05412
H          1.67741       -2.26426       -1.72220
C          3.22225        0.88355       -0.51923
H          3.38461        0.89101        0.56606
C         -2.41302       -1.68211       -0.34685
H         -2.17296       -1.84683        0.71080
C         -3.02203        1.01849       -0.96106
H         -3.18942        1.17274       -2.03390
C          3.67422       -1.34610       -1.75288
H          4.39560       -2.16909       -1.63872
H          3.50041       -1.25800       -2.83645
C          4.27404       -0.01197       -1.21495
H          4.73802        0.55011       -2.03761
H          5.09677       -0.22636       -0.51714
C         -3.90418       -1.34054       -0.50768
H         -4.23818       -1.66799       -1.50173
H         -4.50868       -1.91482        0.21071
C         -4.16191        0.18195       -0.35229
H         -4.24746        0.42894        0.71504
H         -5.12698        0.46593       -0.79903
C          2.54650       -2.46979        0.25746
H          2.99503       -1.78616        0.99070
H          3.29543       -3.25968        0.10505
C          3.17159        2.31544       -1.03791
H          4.18981        2.72873       -1.05490
H          2.84916        2.30242       -2.08698
C         -1.95310       -2.87398       -1.17772
H         -2.21746       -2.69720       -2.22858
H         -0.85684       -2.92531       -1.15938
C         -2.81232        2.35796       -0.26405
H         -3.77121        2.89313       -0.22119
H         -2.53895        2.17294        0.78260
C          1.27018       -3.08286        0.81424
H          0.49878       -2.33040        0.97501
H          1.44023       -3.58182        1.77097
H          0.85851       -3.82599        0.12907
C          2.26588        3.21199       -0.20798
H          2.20260        4.22428       -0.61339
H          2.62411        3.28991        0.82028
H          1.25336        2.81243       -0.15673
C         -2.54257       -4.19251       -0.70008
H         -2.19506       -5.03781       -1.29851
H         -3.63280       -4.18144       -0.75055
H         -2.27089       -4.39148        0.33841
C         -1.76325        3.22622       -0.93592
H         -0.79502        2.72840       -0.94530
H         -2.02771        3.43649       -1.97396
H         -1.63376        4.18391       -0.42657
Cl        -1.70709        0.42552        2.29723
Pd        -0.00185        0.26673        0.84641
