115
-277.94463969
P         -1.85546        0.44196        0.13320
P          1.71829       -0.15455        0.29251
C         -2.31913        2.15822       -0.14069
C         -3.62171        2.52734        0.12090
H         -4.36294        1.77113        0.32855
C         -3.93363        3.86503        0.25882
H         -4.91354        4.16520        0.59318
C         -2.94608        4.82837        0.12073
C         -1.67641        4.44758       -0.28100
H         -0.91778        5.20892       -0.37616
C         -1.36007        3.11094       -0.40869
H         -0.35487        2.81757       -0.66142
C         -3.14151       -0.59199       -0.60995
C         -3.89596       -0.14025       -1.66875
H         -3.71716        0.84348       -2.07213
C         -4.86160       -0.95230       -2.22827
H         -5.44813       -0.62253       -3.07135
C         -5.08541       -2.21687       -1.72213
C         -4.32736       -2.66256       -0.65687
H         -4.50584       -3.65468       -0.27300
C         -3.35886       -1.85268       -0.10306
H         -2.78112       -2.20335        0.73491
C         -1.69901        0.04179        1.90701
C         -1.03168       -1.15674        2.07816
H         -0.61796       -1.65053        1.21560
C         -0.71533       -1.63995        3.34597
C         -1.27216       -0.99152        4.44162
H         -1.07344       -1.36441        5.43245
C         -1.93148        0.21079        4.28153
H         -2.23915        0.76306        5.15338
C         -2.05295        0.80945        3.02723
C          1.42180        0.38679        2.00901
C          0.75036        1.59545        2.03014
H          0.41526        2.02187        1.09980
C          0.33504        2.17605        3.22695
C          0.80001        1.61676        4.41114
H          0.52359        2.06569        5.35046
C          1.46556        0.40732        4.39983
H          1.70076       -0.07350        5.33432
C          1.68367       -0.28855        3.21062
C         -2.20490        2.31597        2.99933
H         -2.95298        2.61975        3.74039
H         -2.63937        2.61772        2.05078
C         -0.85851        3.09194        3.23897
H         -0.71842        3.87983        2.49095
H         -0.89082        3.62531        4.19556
C          0.47063       -2.54855        3.52211
H          0.38017       -3.39737        2.83562
H          0.43240       -2.99782        4.52073
C          1.83324       -1.79199        3.31318
H          2.52837       -2.03341        4.12525
H          2.32905       -2.16610        2.42209
C          2.12695       -1.90229        0.16640
C          1.15350       -2.83707       -0.11384
C          3.39230       -2.29892        0.54437
C          1.40711       -4.17289        0.12082
C          3.64144       -3.63465        0.78689
C          2.62948       -4.57049        0.63749
C          3.09820        0.78538       -0.40337
C          3.92551        0.23373       -1.35426
C          3.32425        2.06805        0.04141
C          4.97666        0.96645       -1.86423
H          3.74320       -0.76872       -1.70735
C          4.37832        2.80055       -0.46493
H          2.68986        2.49246        0.80081
C          5.20732        2.25622       -1.42494
H          5.63546        0.54342       -2.60592
H          4.58377        3.79952       -0.11401
Pd         0.00044        0.14021       -1.28380
Cl        -1.46099        0.61891       -2.92168
Cl         1.55858       -0.39465       -2.81105
H          4.58383       -3.94602        1.20798
H          4.14750       -1.55760        0.75584
H          0.62852       -4.91264        0.01516
H          0.18333       -2.52638       -0.46431
C         -4.58064        6.69149        0.65534
C         -3.10919        6.19260        0.74203
C         -2.60423        6.04957        2.21326
F         -4.63356        7.97351        1.04884
F         -4.97237        6.58343       -0.62284
F         -5.36152        5.92952        1.43355
F         -2.33168        7.08131        0.11876
F         -1.29262        5.78382        2.16070
F         -2.82802        7.18614        2.88623
F         -3.23140        5.01605        2.79242
C         -5.37211       -4.20028       -3.19935
C         -6.11120       -3.11412       -2.36628
C         -7.04040       -3.73014       -1.27893
F         -4.53140       -4.87348       -2.40021
F         -6.27060       -5.03065       -3.74979
F         -4.67685       -3.56791       -4.15686
F         -6.87815       -2.40929       -3.20267
F         -6.33457       -4.57092       -0.50990
F         -7.51327       -2.72087       -0.53235
F         -8.05276       -4.37650       -1.87732
C          7.65652        2.56408       -1.13713
C          6.39623        3.04592       -1.91084
C          6.55436        2.90267       -3.45336
F          7.44896        2.81827        0.16372
F          7.80882        1.24429       -1.32128
F          8.73417        3.23234       -1.57487
F          6.22397        4.34303       -1.64149
F          5.37226        3.20515       -4.01083
F          7.49849        3.75528       -3.88089
F          6.88942        1.64060       -3.75581
C          4.15146       -6.45197        1.39617
C          2.69861       -5.89623        1.35315
C          2.10876       -5.63942        2.77631
F          4.91003       -5.66981        2.17652
F          4.12760       -7.70705        1.87127
F          4.62924       -6.44102        0.14293
F          1.92769       -6.79620        0.73797
F          0.81205       -5.34262        2.62273
F          2.25499       -6.73259        3.53699
F          2.73063       -4.58563        3.32382
