105
-153.07184246
Cl        -0.03615        1.95695        3.02012
Pd        -0.60985        1.12288        1.00063
P         -1.25947        0.49227       -1.15109
N         -0.96061       -1.06923       -1.89621
C          0.07335       -1.96963       -1.62160
C          0.32262       -2.47186       -0.31664
C          1.34974       -3.41846       -0.12532
C          1.57419       -3.98107        1.25834
C          2.45705       -5.23790        1.30192
C          3.67727       -5.08264        0.39002
C          3.24065       -4.84735       -1.06365
C          2.11820       -3.85032       -1.20970
C          1.83414       -3.36798       -2.48085
C          0.83042       -2.45843       -2.68639
H          0.62618       -2.09369       -3.67789
H          2.42035       -3.71801       -3.31367
H          4.09347       -4.50965       -1.66646
H          4.28010       -4.23237        0.73267
H          2.76746       -5.46202        2.33227
H          2.02270       -3.19760        1.87981
C         -0.61675       -2.18998        0.79502
C         -0.14346       -1.60078        2.00114
C         -1.02040       -1.51048        3.08710
C         -2.31659       -1.94475        2.98622
C         -2.80003       -2.51465        1.81485
C         -4.23182       -2.99734        1.80150
C         -4.73376       -3.49080        0.43359
C         -3.63664       -4.25179       -0.31559
C         -2.41156       -3.35273       -0.53336
C         -1.94461       -2.65371        0.71952
H         -1.58270       -3.94043       -0.94736
H         -4.01284       -4.64212       -1.27187
H         -5.05344       -2.63449       -0.17271
H         -4.87580       -2.18937        2.17149
H         -2.98029       -1.84837        3.82883
H         -0.67285       -1.05338        3.99694
N          1.13278       -1.02914        2.10760
P          1.55426        0.17551        0.89095
C          2.66630       -0.40078       -0.38204
C          3.72382       -1.21414       -0.05534
C          4.62416       -1.58981       -1.03631
C          4.47587       -1.13846       -2.34147
C          3.40869       -0.30262       -2.64344
C          2.51207        0.07300       -1.66017
H          1.68776        0.72884       -1.87986
H          3.28062        0.04846       -3.65303
C          5.41707       -1.58016       -3.40698
H          5.44733       -2.23976       -0.79361
H          3.83882       -1.54911        0.96321
C          2.39130        1.60149        1.59366
C          2.26669        2.81455        0.95783
C          2.91275        3.92556        1.46813
C          3.68785        3.82605        2.61572
C          3.81901        2.58665        3.22824
C          3.17145        1.47625        2.71761
H          3.27819        0.51240        3.18797
H          4.43189        2.49667        4.10881
C          4.39963        5.01772        3.15481
H          2.81618        4.87881        0.97714
H          1.65966        2.88947        0.06877
H          1.32246       -0.57793        2.99314
H         -1.24397       -0.95642       -2.86107
C         -0.52645        1.82802       -2.09897
C          0.06792        1.58717       -3.31502
C          0.66530        2.62553       -4.00554
C          0.65765        3.91447       -3.48921
C          0.04139        4.14049       -2.26590
C         -0.55548        3.10063       -1.57846
H         -1.05664        3.27382       -0.63890
H          0.03236        5.13547       -1.85470
C          1.33251        5.02598       -4.21482
H          1.14887        2.43883       -4.94921
H          0.08431        0.58530       -3.71068
C         -3.04123        0.70193       -1.19242
C         -3.61677        1.53497       -2.12237
C         -4.99035        1.69526       -2.14584
C         -5.79611        1.01836       -1.24026
C         -5.19505        0.18770       -0.30498
C         -3.82195        0.02505       -0.28901
H         -3.34900       -0.61323        0.43792
H         -5.80895       -0.32208        0.41761
C         -7.27209        1.21465       -1.23973
H         -5.44483        2.35427       -2.86574
H         -2.98995        2.06251       -2.82314
Cl        -2.55050        2.24683        1.24118
H          2.92330       -5.79648       -1.51184
H          1.87009       -6.10596        0.97650
H          4.33537       -5.95991        0.46520
H          0.59901       -4.19369        1.71436
H         -3.34154       -5.13276        0.26812
H         -2.64231       -2.59413       -1.28999
H         -4.32752       -3.80426        2.53792
H         -5.63014       -4.11627        0.54949
H          5.06187       -2.49631       -3.88089
H          5.52059       -0.81874       -4.18130
H          6.41002       -1.77515       -2.99948
H          3.84670        5.93434        2.94477
H          4.52239        4.94682        4.23643
H          5.39054        5.11206        2.70855
H          1.30482        4.86626       -5.29362
H          0.84822        5.98169       -4.00952
H          2.37771        5.10656       -3.91303
H         -7.63585        1.47579       -2.23447
H         -7.78923        0.30671       -0.92610
H         -7.55498        2.01647       -0.55641
