59
-75.79897959
Cl         1.42689        0.75825        2.40803
P          1.55907        0.06022       -0.81725
P         -1.63141       -0.21504       -0.80257
C          0.56120        0.46748       -2.31740
H          0.27492        1.52021       -2.26749
H          1.19522        0.34416       -3.20073
C         -0.65219       -0.41908       -2.35808
H         -0.35340       -1.46808       -2.43024
H         -1.30002       -0.20343       -3.21340
C          2.49541       -1.50737       -1.13271
H          2.26915       -1.75541       -2.17833
C          2.97683        1.21850       -0.56403
H          3.09985        1.32057        0.52119
C         -2.69707       -1.67540       -0.40362
H         -2.59751       -1.83693        0.67690
C         -2.93210        1.09622       -0.96623
H         -2.95999        1.36546       -2.02896
C          3.97472       -1.09259       -1.00469
H          4.35807       -1.40018       -0.02471
H          4.58820       -1.63826       -1.73738
C          4.16218        0.44171       -1.16337
H          4.24687        0.69404       -2.22954
H          5.10749        0.77090       -0.70528
C         -4.11076       -1.17214       -0.73977
H         -4.34277       -1.43535       -1.78107
H         -4.86031       -1.69683       -0.12768
C         -4.22518        0.36501       -0.55540
H         -4.43348        0.58723        0.50034
H         -5.08513        0.76451       -1.11417
C          2.04642       -2.64530       -0.21544
H          2.49578       -3.58653       -0.56197
H          0.96339       -2.78009       -0.33874
C          2.72541        2.58336       -1.19209
H          2.58178        2.45656       -2.27314
H          1.77282        2.98125       -0.81700
C         -2.27934       -2.93051       -1.16012
H         -2.36927       -2.74160       -2.23790
H         -1.21175       -3.11809       -0.98536
C         -2.64859        2.33157       -0.11645
H         -3.53653        2.97907       -0.12622
H         -2.53202        2.02052        0.92976
C          2.36610       -2.44454        1.26069
H          3.43714       -2.50392        1.45892
H          1.88621       -3.19988        1.88743
H          2.03114       -1.46975        1.61346
C          3.84577        3.57664       -0.92215
H          3.98912        3.72550        0.14975
H          3.64291        4.55410       -1.36575
H          4.79564        3.22388       -1.32784
C         -3.09174       -4.15656       -0.77089
H         -2.99874       -4.36745        0.29617
H         -2.77082       -5.04977       -1.31184
H         -4.15343       -4.01204       -0.97868
C         -1.43051        3.12049       -0.56762
H         -1.28527        4.02505        0.02740
H         -0.52057        2.52800       -0.47739
H         -1.51943        3.42400       -1.61238
Cl        -1.69528        0.10656        2.37141
Pd        -0.04917        0.12495        0.83822
