111
-148.55414605
P         -2.76021        1.81315       -0.27087
P          0.13889        0.60747        0.18048
C         -1.84974        2.20094        1.24842
C         -0.56853        1.71965        1.41337
C         -3.79219        3.23556       -0.84948
C         -3.14168        3.96289       -2.00589
C         -2.42877        2.96804        2.23896
H         -3.43736        3.32657        2.11483
C         -1.71700        3.25786        3.39041
H         -2.16835        3.85733        4.16409
C         -0.43112        2.77813        3.55079
H          0.12149        3.00127        4.44858
C          0.14317        2.00150        2.56067
H          1.13866        1.60250        2.67732
Pd        -1.18253        0.94757       -1.70748
Cl        -2.66010        0.99956       -3.38584
Cl         0.55910        0.03914       -2.80694
C         -5.13540        2.56116       -1.18455
C         -4.06467        0.51472       -0.07159
H         -2.15895        4.35124       -1.72806
H         -3.00055        3.29365       -2.85552
H         -3.75464        4.80082       -2.34599
H         -5.13138        2.27692       -2.24600
H         -5.96361        3.27759       -1.07301
H         -3.89713       -0.20909       -0.88057
C         -5.37132        1.29532       -0.31144
C         -3.97671       -0.15991        1.28008
H         -3.90897        3.90769        0.00995
H         -5.78712        1.59472        0.66045
H         -6.12979        0.64060       -0.76684
H         -3.01702       -0.66333        1.40860
H         -4.07326        0.57104        2.08498
H         -4.76682       -0.90339        1.40833
C         -1.25918       -3.60642        1.19366
C         -0.86809       -3.29286       -0.13295
C         -0.44501       -2.00367       -0.40112
C         -0.35017       -1.06688        0.59272
C         -0.61453       -1.39704        1.89567
C         -1.03047       -2.67283        2.23720
O         -1.91908       -4.83362        1.46801
C         -0.94506       -4.30571       -1.28478
H         -0.19194       -1.70131       -1.40176
H         -0.50921       -0.63378        2.64661
C         -1.26023       -3.00879        3.71848
C          4.67939        0.90268        0.03307
C          3.89557        1.79645       -0.74142
C          2.51556        1.70558       -0.65570
C          1.92065        0.72655        0.09493
C          2.67320       -0.20485        0.76166
C          4.05667       -0.16954        0.72121
O          6.08152        1.09999        0.14541
C          4.52072        2.86024       -1.65753
H          1.88149        2.39874       -1.18125
H          2.15876       -0.96801        1.31976
C          4.85221       -1.27667        1.43044
C          0.13872       -4.00662       -2.34588
C         -0.69857       -5.73935       -0.78169
C         -2.32531       -4.20646       -1.95225
C         -0.28346       -2.21070        4.61224
C         -2.69909       -2.63647        4.10737
C         -1.00375       -4.50095        3.99697
C         -3.33595       -4.75914        1.36969
H          0.17395       -4.79605       -3.09620
H         -0.05856       -3.07443       -2.87304
H          1.12378       -3.93803       -1.88510
H         -1.47237       -6.05409       -0.08594
H         -0.69060       -6.44898       -1.60862
H          0.25984       -5.80597       -0.26788
H         -2.40745       -4.90391       -2.78537
H         -3.12139       -4.43057       -1.24615
H         -2.49593       -3.20058       -2.33562
H         -0.50332       -1.14423        4.59944
H         -0.35219       -2.53856        5.64925
H          0.74590       -2.35255        4.28361
H         -2.87566       -1.57154        3.95798
H         -3.42343       -3.17966        3.50486
H         -2.89209       -2.86601        5.15496
H          0.00016       -4.78292        3.68122
H         -1.10065       -4.72385        5.05924
H         -1.71027       -5.13158        3.46327
H         -3.78401       -5.01597        2.32940
H         -3.64535       -3.75353        1.08181
H         -3.68861       -5.47406        0.62646
C          6.46426        1.93553        1.23048
C          4.73097        4.15783       -0.86301
C          5.85964        2.37169       -2.23981
C          3.59193        3.15897       -2.85666
C          4.05541       -2.60208        1.43548
C          6.18098       -1.55517        0.70470
C          5.11927       -0.85991        2.88454
H          5.39859        3.99956       -0.01946
H          5.16263        4.93553       -1.49254
H          3.78370        4.52748       -0.47108
H          5.72665        1.42689       -2.76576
H          6.26961        3.09676       -2.94240
H          6.59932        2.21694       -1.45821
H          4.08716        3.80883       -3.57773
H          3.31445        2.23867       -3.37007
H          2.67995        3.66530       -2.54422
H          4.66680       -3.41963        1.81676
H          3.17283       -2.54104        2.07063
H          3.73501       -2.86554        0.42777
H          6.71469       -2.38453        1.16815
H          6.00152       -1.80816       -0.33970
H          6.83594       -0.68779        0.72950
H          5.69486        0.06146        2.93113
H          5.67544       -1.63173        3.41601
H          4.18236       -0.69256        3.41552
H          5.58414        2.27901        1.77554
H          7.11707        1.38239        1.90550
H          7.01645        2.79559        0.85208
