87
-129.18861617
P         -1.65175       -0.37277       -0.21911
P          1.63965        0.38167       -0.08189
C         -1.36604        0.92054       -1.44294
C          1.44217       -0.68409       -1.51883
C         -0.35599        0.81790       -2.39525
C         -0.13278        1.90123       -3.26744
C         -0.93440        3.02578       -3.17155
C         -1.93700        3.10491       -2.22971
C         -2.14536        2.04962       -1.36408
C          2.23340       -1.80356       -1.60846
C          2.08768       -2.67637       -2.66844
C          1.13852       -2.42285       -3.63519
C          0.32721       -1.30310       -3.56345
C          0.48478       -0.40593       -2.48880
Cl         1.21049        0.81112        3.08595
Cl        -1.45408       -1.06110        2.90546
H         -2.54914        3.98932       -2.16215
H         -2.92256        2.10895       -0.62064
H          2.96946       -1.99780       -0.84620
H          2.70746       -3.55554       -2.73446
H         -0.76011        3.84980       -3.84252
H          1.01462       -3.10478       -4.45930
C         -1.42907       -4.56122       -1.96327
C         -0.64256       -4.23785       -0.86608
C         -0.74750       -2.96068       -0.32969
C         -1.58838       -2.03135       -0.89708
C         -2.36048       -2.35698       -1.98726
C         -2.28406       -3.63042       -2.52048
H         -1.36471       -5.55176       -2.38026
C          0.27553       -5.23692       -0.25516
H         -0.16108       -2.69430        0.53306
H         -3.00700       -1.61113       -2.42242
H         -2.88593       -3.89313       -3.37493
C         -5.54916        0.40097        2.00747
C         -5.45230       -0.67492        1.14726
C         -4.27001       -0.91434        0.47268
C         -3.19653       -0.07514        0.65855
C         -3.28976        0.99517        1.51845
C         -4.46719        1.24594        2.21224
H         -6.46982        0.59042        2.53260
H         -6.29650       -1.32914        1.00313
H         -4.17822       -1.75558       -0.19433
H         -2.43711        1.63750        1.66639
C         -4.56369        2.41326        3.13029
C          5.21792       -0.96565        2.39344
C          5.25362        0.25283        1.74453
C          4.16986        0.66591        0.99286
C          3.06287       -0.14330        0.89095
C          3.02353       -1.35607        1.54012
C          4.09956       -1.78311        2.30852
H          6.06179       -1.29078        2.97781
H          6.12410        0.88297        1.82585
H          4.18026        1.61859        0.48945
H          2.14690       -1.97732        1.45880
C          4.05971       -3.10302        2.99476
C          1.83964        4.77383       -1.21595
C          2.70031        3.87132       -1.80975
C          2.64775        2.53476       -1.45956
C          1.74226        2.11779       -0.51256
C          0.89247        3.01552        0.09077
C          0.91818        4.35848       -0.26442
H          1.87653        5.81440       -1.48994
H          3.40777        4.20627       -2.55048
H          3.29840        1.81235       -1.92706
H          0.19691        2.67297        0.83818
C         -0.00506        5.32742        0.38581
Pd        -0.05473       -0.07078        1.45507
C          0.94728        1.86474       -4.29245
C         -0.69209       -1.07366       -4.62487
H          0.53479        1.68470       -5.28587
H          1.48817        2.81167       -4.32070
H          1.67337        1.07918       -4.08060
H         -0.22338       -0.72088       -5.54431
H         -1.22831       -1.99549       -4.85448
H         -1.43070       -0.33294       -4.31661
H          0.59324       -5.98070       -0.98725
H          1.17252       -4.75484        0.13700
H         -0.21321       -5.75973        0.56806
H         -4.75413        3.33090        2.57191
H         -5.37124        2.28381        3.85214
H         -3.63697        2.54556        3.69069
H          4.67474       -3.09740        3.89572
H          3.04150       -3.35938        3.29132
H          4.42852       -3.89259        2.33851
H         -0.22528        6.16682       -0.27526
H         -0.95280        4.85209        0.64370
H          0.43303        5.72441        1.30253
