105
-153.07325141
Cl        -0.05059        1.89744        3.06629
Pd        -0.62759        1.12278        1.02550
P         -1.28254        0.51692       -1.13563
N         -1.02652       -1.06106       -1.86038
C          0.03440       -1.94119       -1.62022
C          0.31518       -2.45364       -0.32624
C          1.35710       -3.38810       -0.16215
C          1.61138       -3.96177        1.21148
C          2.50579       -5.21109        1.22517
C          3.70926       -5.03418        0.29497
C          3.24755       -4.78383       -1.14860
C          2.11223       -3.79744       -1.26431
C          1.80117       -3.30275       -2.52464
C          0.78116       -2.40531       -2.70331
H          0.55405       -2.03375       -3.68721
H          2.37899       -3.63405       -3.37089
H          4.08723       -4.42870       -1.75972
H          4.31099       -4.18375        0.63899
H          2.83535       -5.44463        2.24745
H          2.06385       -3.18040        1.83275
C         -0.60753       -2.18789        0.80205
C         -0.12315       -1.58642        1.99677
C         -0.98899       -1.49037        3.09130
C         -2.28649       -1.92482        3.00551
C         -2.78027       -2.50726        1.84439
C         -4.21252       -2.98939        1.84793
C         -4.71194       -3.55287        0.50565
C         -3.60320       -4.31557       -0.22495
C         -2.40132       -3.39691       -0.48549
C         -1.93238       -2.66193        0.74571
H         -1.56641       -3.97712       -0.89803
H         -3.97731       -4.74934       -1.16315
H         -5.06107       -2.73205       -0.13250
H         -4.85657       -2.16250        2.17336
H         -2.94350       -1.81777        3.85204
H         -0.63441       -1.02216        3.99273
N          1.14993       -1.00387        2.07919
P          1.54425        0.19871        0.84841
C          2.67360       -0.38205       -0.40828
C          2.53444        0.07728       -1.69333
C          3.44519       -0.30476       -2.66086
C          4.50495       -1.14236       -2.33889
C          4.64910       -1.56360       -1.02329
C          3.73401       -1.18200       -0.05834
H          3.84160       -1.49939        0.96665
H          5.48200       -2.19252       -0.75938
C          5.49013       -1.54956       -3.37797
H          3.33576        0.04488       -3.67314
H          1.71319        0.73056       -1.93043
C          2.37218        1.63214        1.54860
C          3.15545        1.51232        2.67097
C          3.79555        2.62707        3.18155
C          3.66467        3.86336        2.56287
C          2.87289        3.96111        1.42667
C          2.23420        2.84562        0.91708
H          1.62311        2.91708        0.03107
H          2.75633        4.91684        0.94490
C          4.32672        5.07009        3.13109
H          4.40039        2.54335        4.06827
H          3.26902        0.54972        3.14214
H          1.34843       -0.54625        2.95939
H         -1.33434       -0.94990       -2.81787
C         -0.49431        1.81312       -2.09472
C         -0.43189        3.08611       -1.57726
C          0.21000        4.08609       -2.28373
C          0.78985        3.81872       -3.51621
C          0.68852        2.53588       -4.03743
C          0.04668        1.53733       -3.32826
H         -0.01321        0.53750       -3.72451
H          1.12032        2.32231       -5.00031
C          1.46831        4.89979       -4.28311
H          0.26314        5.08328       -1.88117
H         -0.89565        3.29532       -0.62603
C         -3.05721        0.77444       -1.20531
C         -3.59153        1.75526       -2.00706
C         -4.96149        1.93936       -2.04890
C         -5.80538        1.13899       -1.29083
C         -5.24602        0.15988       -0.48161
C         -3.87585       -0.02490       -0.44690
H         -3.43315       -0.77006        0.19250
H         -5.89015       -0.44721        0.13099
C         -7.27804        1.35830       -1.30678
H         -5.38388        2.71235       -2.66795
H         -2.93623        2.37738       -2.59458
Cl        -2.69617        1.90260        1.45893
H          2.93365       -5.73025       -1.60485
H          1.92103       -6.08040        0.89915
H          4.37544       -5.90695        0.34803
H          0.64652       -4.18765        1.68287
H         -3.28296       -5.16736        0.38809
H         -2.65851       -2.66213       -1.25681
H         -4.31194       -3.75698        2.62482
H         -5.59015       -4.19637        0.65649
H          6.29299       -0.81565       -3.45972
H          5.93879       -2.51475       -3.13860
H          5.01468       -1.63981       -4.35572
H          4.58087        5.78548        2.34770
H          3.67073        5.57079        3.84443
H          5.24933        4.80604        3.64985
H          2.22448        4.49181       -4.95530
H          0.74941        5.45818       -4.88418
H          1.96615        5.60282       -3.61374
H         -7.60742        1.75296       -2.26897
H         -7.81666        0.42632       -1.12950
H         -7.57124        2.06902       -0.53298
