75
-122.81753256
P          1.80867       -0.58412        0.04979
C          3.12206       -1.32876       -0.93177
C          2.84850       -1.95031       -2.12845
C          3.87234       -2.53900       -2.84754
C          5.16269       -2.51151       -2.35723
C          5.43034       -1.90300       -1.14726
C          4.40395       -1.31451       -0.43063
H          4.59396       -0.85461        0.52664
H          6.43563       -1.88878       -0.75937
H          5.96134       -2.96916       -2.91794
H          3.66218       -3.01730       -3.79007
H          1.83678       -1.97168       -2.49966
C          1.71281       -1.54775        1.56724
C          1.91658       -2.90713        1.49558
C          1.93030       -3.66382        2.65361
C          1.74421       -3.05203        3.87733
C          1.53696       -1.68875        3.94502
C          1.51974       -0.93712        2.78509
H          1.34145        0.12423        2.82201
H          1.38125       -1.21141        4.89847
H          1.75321       -3.64042        4.78026
H          2.08869       -4.72831        2.59965
H          2.07788       -3.36859        0.53412
C          2.19247        1.13450        0.43038
C          3.34119        1.78422        0.04323
C          3.50856        3.13749        0.30273
C          2.47756        3.83192        0.93488
C          1.31386        3.19808        1.30985
C          1.16827        1.82414        1.06071
O         -0.01262        1.14302        1.39622
C         -1.20752        1.81321        1.09079
C         -1.36766        3.18088        1.36490
C         -2.55699        3.79882        1.04780
C         -3.59793        3.09719        0.44050
C         -3.40942        1.75607        0.13598
C         -2.23361        1.12294        0.46453
P         -1.82750       -0.56253       -0.02139
C         -1.65959       -1.61673        1.42274
C         -1.78704       -1.09517        2.68954
C         -1.74330       -1.93607        3.78619
C         -1.57397       -3.29443        3.60435
C         -1.44512       -3.81294        2.33095
C         -1.49101       -2.96936        1.23543
H         -1.40877       -3.35949        0.23299
H         -1.30974       -4.87254        2.18949
H         -1.53549       -3.95057        4.45849
H         -1.83742       -1.53054        4.78008
H         -1.91610       -0.03254        2.81430
C         -3.16144       -1.26275       -1.00856
C         -4.39731       -1.40002       -0.41805
C         -5.44649       -1.94707       -1.13471
C         -5.24746       -2.35977       -2.43705
C         -4.00326       -2.23066       -3.02149
C         -2.95675       -1.68343       -2.30247
H         -1.98266       -1.57637       -2.75072
H         -3.84723       -2.55332       -4.03778
H         -6.06387       -2.78505       -2.99766
H         -6.41576       -2.05233       -0.67573
H         -4.53319       -1.08506        0.60498
Pd         0.02491       -0.05739       -1.42564
Cl        -1.57797        1.08193       -2.54298
Cl         1.61796        0.83055       -2.74630
H         -4.17628        1.21413       -0.38869
C         -4.85750        3.78853        0.05775
H         -4.79053        4.17671       -0.95932
H         -5.06631        4.62539        0.72541
H         -5.70843        3.10757        0.10305
H         -2.67366        4.84712        1.25893
S         -0.01760        4.07248        2.09286
H          2.58209        4.88601        1.12211
C          4.73715        3.84525       -0.14548
H          4.10276        1.24607       -0.49229
H          4.94728        4.70916        0.48635
H          5.60580        3.18662       -0.10664
H          4.62673        4.19681       -1.17204
