171
-217.84491991
P         -1.55054        0.42083       -0.34280
P          1.59385       -0.41818       -0.37464
C         -0.85325        1.36192       -1.70481
C          0.86696       -1.36448       -1.71863
C         -0.08556        0.73846       -2.68184
C          0.52458        1.53198       -3.67239
C          0.30698        2.89970       -3.67306
C         -0.48500        3.49435       -2.71378
C         -1.05512        2.72028       -1.72218
C          1.05370       -2.72534       -1.73266
C          0.45532       -3.49991       -2.70677
C         -0.34499       -2.90238       -3.65694
C         -0.54704       -1.53233       -3.66106
C          0.08520       -0.73972       -2.68344
Cl         1.63167        0.32311        2.84787
Cl        -1.58609       -0.47024        2.81808
C         -1.41778       -0.92595       -4.70549
C          1.39032        0.92941       -4.72325
H         -0.65464        4.55842       -2.73411
H         -1.66143        3.17726       -0.95666
H          1.67218       -3.18600       -0.97986
H          0.61015       -4.56638       -2.72111
H          0.76833        3.50095       -4.43832
H         -0.82520       -3.50310       -4.41092
C         -3.89309       -3.27148       -1.49211
C         -2.92619       -3.36999       -0.49867
C         -2.19887       -2.22957       -0.18876
C         -2.43082       -1.05164       -0.85315
C         -3.38788       -0.96887       -1.83424
C         -4.14572       -2.08472       -2.17054
H         -4.48478       -4.13387       -1.73475
H         -1.46292       -2.25270        0.59655
H         -3.54873       -0.02078       -2.31867
C         -4.33173        2.96524        2.18360
C         -4.87068        1.97530        1.37037
C         -3.99456        1.22341        0.60107
C         -2.64364        1.46052        0.64016
C         -2.12710        2.44316        1.44830
C         -2.96497        3.20988        2.24847
H         -4.98669        3.56018        2.79185
H         -4.37024        0.43272       -0.02441
H         -1.06159        2.59311        1.46479
C          4.35526       -2.94345        2.18749
C          2.99969       -3.25038        2.16226
C          2.17945       -2.48807        1.34165
C          2.69429       -1.44855        0.60797
C          4.03195       -1.14704        0.66034
C          4.89466       -1.89744        1.44847
H          5.01369       -3.52436        2.80531
H          1.12413       -2.69279        1.28492
H          4.39494       -0.31065        0.09030
C          3.86086        3.31543       -1.54502
C          2.88681        3.40139       -0.55756
C          2.18004        2.24855       -0.24500
C          2.44890        1.06767       -0.89082
C          3.41738        0.99632       -1.86143
C          4.14678        2.12796       -2.20845
H          4.42940        4.19032       -1.79794
H          1.42382        2.26691        0.52088
H          3.60626        0.04645       -2.33199
Pd         0.02799       -0.00646        1.31785
C         -2.87617       -4.40113        1.78581
C         -2.65820       -4.66316        0.28317
C         -1.20494       -5.10544        0.04116
C         -3.59704       -5.80260       -0.15607
H         -2.70706       -5.30632        2.36865
H         -2.19809       -3.63464        2.15858
H         -3.89507       -4.06311        1.97321
H         -0.97154       -6.00852        0.60477
H         -1.03829       -5.31362       -1.01508
H         -0.50428       -4.32870        0.34301
H         -3.39401       -6.71072        0.41147
H         -4.64084       -5.53626        0.00929
H         -3.46216       -6.03700       -1.21185
C         -6.62398       -2.24781       -2.46397
C         -5.28789       -2.01924       -3.19452
C         -5.08991       -3.10889       -4.26520
C         -5.34569       -0.64858       -3.89738
H         -6.64817       -3.22535       -1.98351
H         -6.77477       -1.49299       -1.69227
H         -7.46288       -2.19444       -3.15762
H         -5.11948       -4.10644       -3.82901
H         -5.87174       -3.05637       -5.02271
H         -4.12916       -2.99167       -4.76481
H         -4.41178       -0.43116       -4.41408
H         -6.14551       -0.62727       -4.63750
H         -5.53916        0.15177       -3.18361
C         -6.87039        1.84331       -0.13701
C         -6.37262        1.66425        1.30947
C         -7.18600        2.59644        2.22725
C         -6.60403        0.20889        1.75862
H         -7.93915        1.64270       -0.20973
H         -6.69313        2.86179       -0.48191
H         -6.35787        1.16571       -0.81877
H         -7.05990        3.63953        1.93770
H         -8.24937        2.36417        2.16957
H         -6.88078        2.48631        3.26766
H         -7.66510       -0.03955        1.74716
H         -6.09027       -0.49450        1.10414
H         -6.23104        0.05532        2.77099
C         -0.88145        4.31727        3.20286
C         -2.42234        4.28442        3.20152
C         -2.89614        3.98063        4.63536
C         -2.94323        5.66308        2.75919
H         -0.50976        5.06285        3.90552
H         -0.46893        3.35175        3.49554
H         -0.49612        4.57526        2.21790
H         -3.98231        4.00862        4.71091
H         -2.56389        2.99032        4.94637
H         -2.49559        4.70836        5.34086
H         -2.56611        6.45058        3.41145
H         -2.62424        5.88588        1.74104
H         -4.03178        5.70010        2.78434
C          1.06883       -3.97076        3.61432
C          2.40175       -4.40951        2.97240
C          3.35014       -4.85497        4.10283
C          2.15472       -5.59780        2.02823
H          0.67408       -4.75117        4.26452
H          1.20753       -3.07051        4.21261
H          0.30981       -3.76037        2.86284
H          4.27307       -5.27533        3.70464
H          3.60340       -4.01582        4.75056
H          2.88341       -5.62341        4.71899
H          1.70212       -6.43426        2.56045
H          1.48992       -5.31532        1.21325
H          3.09056       -5.94179        1.58818
C          7.20768       -2.82575        1.14525
C          6.39378       -1.58020        1.54198
C          6.73283       -1.17422        2.98749
C          6.78847       -0.42305        0.60225
H          6.95636       -3.14289        0.13329
H          8.27728       -2.61904        1.17831
H          7.01019       -3.66045        1.81664
H          6.14891       -0.30469        3.28874
H          6.51424       -1.98127        3.68586
H          7.78888       -0.92343        3.08563
H          7.85722       -0.21931        0.66640
H          6.56021       -0.66688       -0.43522
H          6.26300        0.49470        0.86590
C          3.56743        5.82398       -0.16760
C          2.57839        4.70104        0.19905
C          2.67720        4.44515        1.71579
C          1.15583        5.16370       -0.15816
H          3.35101        6.72947        0.39921
H          4.59297        5.53024        0.05576
H          3.50190        6.07626       -1.22576
H          2.48602        5.35842        2.27891
H          1.95630        3.69760        2.04334
H          3.67150        4.08656        1.98088
H          0.88504        6.06363        0.39369
H          1.08235        5.38561       -1.22221
H          0.42319        4.39186        0.07271
C          5.03436        3.14427       -4.33095
C          5.28383        2.08619       -3.23947
C          5.38997        0.70401       -3.91315
C          6.61602        2.38469       -2.52734
H          4.07720        2.97671       -4.82276
H          5.02349        4.15076       -3.91481
H          5.81402        3.10950       -5.09172
H          5.61620       -0.07266       -3.18283
H          4.46225        0.44112       -4.42017
H          6.18667        0.69660       -4.65687
H          7.44994        2.35022       -3.22818
H          6.60531        3.37267       -2.06830
H          6.80488        1.65381       -1.74154
H         -1.76900        0.06282       -4.40735
H          0.85576        0.84972       -5.67069
H         -2.29534       -1.54667       -4.88728
H         -0.88120       -0.82465       -5.64970
H          1.72786       -0.06821       -4.43908
H          2.27705        1.54050       -4.89217
