72
-108.40309716
Cl        -1.81898        0.71409        2.70260
Cl         1.06386       -0.62459        2.76387
P          1.09461       -1.14690       -0.30464
P         -2.24004        0.09891       -0.37946
C         -3.23704       -1.50082       -0.16524
C         -3.60556       -1.67382        1.30950
C         -4.49589       -1.44984       -1.02379
C         -3.32412        1.64400       -0.10965
C         -4.12066        1.96497       -1.38185
C         -1.45230        0.41433       -2.06601
C         -1.51462       -0.73895       -3.04619
C          1.12146        0.20984       -1.51288
C         -0.03870        0.95852       -1.98901
C          0.46956        2.05406       -2.81605
C          1.91472        1.95914       -2.87540
C          2.31430        0.82674       -2.06233
C         -2.37224       -2.68612       -0.57011
H         -2.71965       -1.65544        1.94425
H         -4.28461       -0.90145        1.66000
H         -5.18319       -0.67806       -0.68166
H         -5.02989       -2.40035       -0.97756
C         -4.30099        1.48913        1.05247
H         -4.90976        2.68715       -1.16572
H         -4.59248        1.07702       -1.79911
H         -2.06455        1.22254       -2.47579
H         -0.85585       -1.54365       -2.72908
H         -1.16858       -0.43000       -4.03470
H         -2.52283       -1.13418       -3.16275
H         -0.14713        2.75044       -3.38675
H          2.58216        2.61533       -3.43770
Pd        -0.49844       -0.26290        1.18368
H          3.33517        0.49061       -1.86865
C         -2.35508        2.77902        0.18547
H         -3.49749        2.41511       -2.15391
H         -3.79490        1.17917        1.96395
H         -4.79199        2.43979        1.26525
H         -5.08745        0.77254        0.82352
H         -1.58864        2.84946       -0.58778
H         -2.87699        3.73694        0.23168
H         -1.86673        2.62441        1.14651
H         -4.10325       -2.63163        1.46979
H         -4.26136       -1.25435       -2.06890
H         -1.44801       -2.69373        0.00508
H         -2.88850       -3.62742       -0.37375
H         -2.12517       -2.67398       -1.62841
C          2.76394       -1.24580        0.39386
C          3.20571       -2.23543        1.23656
C          4.53160       -1.94169        1.55480
C          4.84682       -0.78312        0.88911
O          3.77090       -0.34576        0.17218
H          2.62669       -3.06779        1.60067
H          5.17987       -2.51057        2.20112
H          5.80318       -0.27582        0.91943
C          0.73255       -2.74654       -1.05233
C          0.65787       -3.91636       -0.33681
C          0.36667       -4.93397       -1.24629
C          0.27686       -4.34135       -2.48182
O          0.49599       -2.99740       -2.37634
H          0.78110       -4.01910        0.72928
H          0.23738       -5.98025       -1.02237
H          0.06207       -4.85039       -3.41323
Fe         1.28782        2.12927       -0.89742
C          2.97710        2.81515        0.05428
C          2.17723        2.00979        0.95576
C          0.87773        2.63441        1.07402
C          0.86972        3.82906        0.25166
C          2.17058        3.94142       -0.38080
H          4.01301        2.61545       -0.22908
H          2.49159        1.09212        1.45585
H          0.07876        2.28795        1.73136
H          0.04968        4.54413        0.16088
H          2.49363        4.74299       -1.04840
