171
-217.83669772
P         -1.70620        0.68011        0.20971
P          1.49351       -0.22633       -0.20957
C         -0.85721        1.87145       -0.85212
C          0.69377       -0.79228       -1.72359
C         -0.14677        1.53052       -1.99711
C          0.55511        2.53928       -2.68360
C          0.50513        3.84119       -2.21493
C         -0.20396        4.16101       -1.07733
C         -0.87786        3.16777       -0.39339
C          0.83727       -2.08885       -2.15422
C          0.22002       -2.50641       -3.31698
C         -0.55765       -1.62275       -4.03572
C         -0.73042       -0.31544       -3.61175
C         -0.06727        0.11742       -2.44739
Cl         1.90218        1.00097        2.89663
Cl        -1.18003        0.17737        3.41158
C         -1.59243        0.61274       -4.39406
C          1.36826        2.23893       -3.89411
H         -0.22520        5.17660       -0.71725
H         -1.41781        3.39827        0.51323
H          1.42693       -2.78096       -1.57820
H          0.34155       -3.52061       -3.66047
H          1.04234        4.60744       -2.74809
H         -1.03734       -1.94580       -4.94386
C         -2.83138       -3.40361       -1.39708
C         -1.82417       -3.33554       -0.44289
C         -1.47505       -2.08157        0.04412
C         -2.09732       -0.95186       -0.43538
C         -3.09262       -1.04079       -1.37727
C         -3.48631       -2.27658       -1.87491
H         -3.12766       -4.36737       -1.76814
H         -0.71212       -1.97953        0.79439
H         -3.56937       -0.13542       -1.71035
C         -5.64775        2.58674        1.39342
C         -4.92220        1.91068        2.36803
C         -3.71271        1.34158        1.99755
C         -3.25245        1.44429        0.71077
C         -3.98158        2.11392       -0.24078
C         -5.19684        2.70341        0.08308
H         -6.58441        3.03573        1.66196
H         -3.11023        0.82511        2.72231
H         -3.59286        2.18575       -1.24328
C          3.76966       -3.70093        1.66774
C          2.84010       -3.03294        2.45248
C          2.14020       -1.98331        1.87444
C          2.37137       -1.60559        0.57222
C          3.31719       -2.26498       -0.17521
C          4.02598       -3.33709        0.35268
H          4.31708       -4.52039        2.09587
H          1.41697       -1.44798        2.45866
H          3.49932       -1.93832       -1.18340
C          4.54494        2.91833       -1.35220
C          3.71899        3.16069       -0.26193
C          2.80568        2.17683        0.09101
C          2.71189        1.01766       -0.63616
C          3.51990        0.80448       -1.72620
C          4.46241        1.75349       -2.10495
H          5.28348        3.65367       -1.61253
H          2.16917        2.30128        0.94774
H          3.39520       -0.10161       -2.29281
Pd         0.14154        0.46836        1.61338
C         -0.00280       -4.34644        1.01829
C         -1.18164       -4.63200        0.07236
C         -0.65004       -5.46177       -1.11197
C         -2.24096       -5.44335        0.83917
H          0.76326       -3.75852        0.51585
H         -0.33023       -3.80565        1.90558
H          0.46041       -5.27610        1.34746
H         -0.18230       -6.38197       -0.76218
H         -1.44830       -5.73720       -1.79957
H          0.09693       -4.90033       -1.67104
H         -2.63298       -4.86775        1.67753
H         -3.07820       -5.70676        0.19364
H         -1.81661       -6.36706        1.23228
C         -4.07604       -3.04969       -4.18785
C         -4.62550       -2.42549       -2.89330
C         -5.26229       -1.06428       -3.23471
C         -5.71934       -3.33493       -2.30250
H         -3.63018       -4.02553       -3.99873
H         -4.86823       -3.18035       -4.92484
H         -3.31113       -2.41130       -4.62717
H         -4.53173       -0.38674       -3.67514
H         -6.07375       -1.18488       -3.95225
H         -5.67661       -0.59430       -2.34312
H         -5.33753       -4.33420       -2.09711
H         -6.09837       -2.92234       -1.36764
H         -6.55765       -3.43479       -2.99177
C         -5.53995        0.28536        4.17380
C         -5.39789        1.77803        3.82190
C         -6.75920        2.46463        4.04354
C         -4.36162        2.43236        4.75485
H         -6.24966       -0.20178        3.50546
H         -4.58664       -0.23441        4.08557
H         -5.89531        0.15746        5.19607
H         -6.70120        3.53085        3.82544
H         -7.52908        2.02264        3.41131
H         -7.08185        2.35758        5.07914
H         -4.67902        2.37011        5.79552
H         -3.39123        1.94406        4.67320
H         -4.22827        3.48448        4.50420
C         -5.11091        4.62128       -1.52707
C         -5.97538        3.45904       -1.00333
C         -7.29734        4.03687       -0.46265
C         -6.30087        2.49489       -2.15928
H         -4.85101        5.30272       -0.71725
H         -4.18322        4.25773       -1.96781
H         -5.64207        5.18991       -2.29015
H         -7.83693        4.56692       -1.24746
H         -7.94864        3.24565       -0.09176
H         -7.11495        4.74390        0.34643
H         -5.39267        2.10124       -2.61418
H         -6.89067        1.65120       -1.80158
H         -6.87139        2.99894       -2.93916
C          3.96870       -3.15179        4.68090
C          2.65324       -3.41945        3.92752
C          2.28906       -4.91148        4.03643
C          1.53250       -2.59614        4.59492
H          3.87100       -3.39782        5.73808
H          4.78493       -3.74664        4.27238
H          4.24848       -2.10136        4.60250
H          1.35626       -5.12110        3.51505
H          3.06445       -5.54398        3.60630
H          2.16190       -5.20486        5.07835
H          1.76734       -1.53196        4.58704
H          0.57991       -2.74227        4.08645
H          1.40022       -2.89443        5.63466
C          5.23417       -3.51545       -1.88050
C          5.04844       -4.12581       -0.47698
C          4.55339       -5.57495       -0.63421
C          6.41136       -4.11360        0.23981
H          5.97114       -4.07856       -2.45293
H          4.30077       -3.52990       -2.44309
H          5.58408       -2.48537       -1.81507
H          3.58101       -5.59763       -1.12633
H          5.24923       -6.16303       -1.23234
H          4.44869       -6.06319        0.33413
H          7.16360       -4.64336       -0.34444
H          6.75794       -3.09104        0.38845
H          6.35213       -4.59254        1.21629
C          2.78980        4.56264        1.64674
C          3.84039        4.47467        0.52149
C          3.62432        5.66096       -0.43622
C          5.24187        4.56067        1.15144
H          2.87246        5.50909        2.18061
H          1.77890        4.49694        1.24488
H          2.92454        3.76226        2.37392
H          3.68598        6.60923        0.09739
H          4.37312        5.67481       -1.22716
H          2.64280        5.60166       -0.90555
H          5.41503        3.71654        1.81870
H          6.01947        4.54901        0.38854
H          5.35436        5.47750        1.72982
C          5.00427        0.30503       -4.12540
C          5.43991        1.50744       -3.26389
C          6.83292        1.21804       -2.67823
C          5.51152        2.74819       -4.17561
H          5.67511        0.17435       -4.97442
H          5.02275       -0.62075       -3.55141
H          3.99733        0.44843       -4.51659
H          7.18986        2.05988       -2.08550
H          6.80364        0.34207       -2.03026
H          7.55902        1.03032       -3.46900
H          4.52745        2.99878       -4.56954
H          5.89211        3.61768       -3.64184
H          6.17411        2.56864       -5.02218
H         -2.02330        1.38403       -3.75358
H          0.88951        2.62973       -4.79308
H         -2.41774        0.07842       -4.86668
H         -1.02093        1.10635       -5.18100
H          1.51242        1.16605       -4.02597
H          2.35524        2.69548       -3.81478
