111
-148.55447375
P         -1.43563        2.58324        1.24594
P         -0.28801       -0.27753        0.56280
C         -0.90612        1.48184        2.58746
C         -0.47149        0.20731        2.29083
C         -0.33502        4.06472        1.13458
C          0.48645        4.03104       -0.13689
C         -0.90794        1.92061        3.89602
H         -1.21166        2.93065        4.11769
C         -0.49755        1.07021        4.90815
H         -0.50239        1.41089        5.93067
C         -0.07525       -0.21110        4.60922
H          0.24990       -0.87075        5.39683
C         -0.05185       -0.64056        3.29441
H          0.30840       -1.62501        3.03998
Pd        -1.60204        1.21861       -0.60925
Cl        -2.72415        2.88583       -1.60587
Cl        -1.64978       -0.19726       -2.35213
C         -1.32179        5.24583        1.22179
C         -3.06466        3.40717        1.56028
H          1.11956        4.91670       -0.22781
H          1.13196        3.15117       -0.17189
H         -0.16245        3.99440       -1.01421
H         -1.54256        5.59445        0.20355
H         -0.85159        6.10132        1.72988
H         -3.58899        3.40412        0.59559
C         -2.64974        4.84377        1.92553
C         -3.89221        2.69134        2.60679
H          0.31001        4.03306        2.02236
H         -2.52551        4.91203        3.01499
H         -3.45646        5.54989        1.67596
H         -4.86090        3.17609        2.74785
H         -4.07163        1.65119        2.32525
H         -3.38717        2.68598        3.57297
C         -0.92730       -4.72062       -0.21705
C         -1.77253       -4.03365        0.69122
C         -1.53202       -2.68905        0.92461
C         -0.53809       -2.02217        0.25638
C          0.21360       -2.65790       -0.69663
C          0.01507       -3.99637       -0.99059
O         -1.00421       -6.13446       -0.33026
C         -2.92041       -4.73275        1.43648
H         -2.11866       -2.13972        1.64086
H          0.96334       -2.08873       -1.21683
C          0.81720       -4.63638       -2.13474
C          3.62649        1.48711       -0.96956
C          3.35565        1.46091        0.42243
C          2.18671        0.85619        0.85248
C          1.27851        0.35501       -0.04321
C          1.48511        0.47946       -1.39229
C          2.63257        1.06972       -1.89081
O          4.89603        1.91647       -1.44013
C          4.30161        2.08478        1.46052
H          1.95939        0.78513        1.90146
H          0.70360        0.14783       -2.05294
C          2.77501        1.26980       -3.40790
C         -2.38862       -5.31905        2.75298
C         -4.05073       -3.73106        1.76448
C         -3.54402       -5.84497        0.57355
C          1.14620       -3.58516       -3.21971
C          2.13510       -5.20013       -1.58304
C          0.00766       -5.75104       -2.82186
C         -0.12430       -6.83562        0.53927
H         -1.60278       -6.04803        2.57060
H         -1.97230       -4.53397        3.38385
H         -3.18408       -5.81373        3.30975
H         -4.91769       -4.24742        2.17604
H         -3.73615       -2.99634        2.50418
H         -4.37138       -3.20151        0.86770
H         -4.40110       -6.29531        1.07361
H         -3.88012       -5.44528       -0.38261
H         -2.82837       -6.63782        0.37044
H          1.85811       -2.84509       -2.85822
H          1.59223       -4.05717       -4.09480
H          0.24433       -3.06518       -3.54198
H          2.73060       -5.64872       -2.37779
H          2.72810       -4.41101       -1.12121
H          1.95345       -5.96190       -0.82876
H          0.54846       -6.15964       -3.67509
H         -0.19729       -6.57152       -2.13869
H         -0.94761       -5.36658       -3.17775
H          0.45231       -6.13460        1.14405
H         -0.70132       -7.49015        1.19230
H          0.55430       -7.45408       -0.04788
C          5.85282        0.87246       -1.56566
C          5.01607        3.32010        0.88292
C          3.51351        2.56176        2.70234
C          5.33125        1.03618        1.90654
C          3.55666        2.55865       -3.72049
C          3.48874        0.05531       -4.01954
C          1.38679        1.41157       -4.07396
H          4.29067        4.04956        0.52395
H          5.63732        3.80217        1.63731
H          5.66010        3.05185        0.04905
H          4.16051        3.11685        3.38116
H          2.69306        3.21740        2.41249
H          3.10235        1.72561        3.26606
H          5.92523        0.68489        1.06631
H          6.01175        1.44899        2.65084
H          4.83442        0.17137        2.34568
H          3.60430        2.73767       -4.79431
H          3.07885        3.41944       -3.25370
H          4.57758        2.50231       -3.35065
H          3.59878        0.16932       -5.09765
H          4.47993       -0.07621       -3.59265
H          2.92364       -0.85715       -3.83321
H          0.79683        2.18483       -3.58242
H          0.82590        0.47873       -4.03963
H          1.48731        1.68482       -5.12397
H          5.41320       -0.08376       -1.27913
H          6.20125        0.81910       -2.59694
H          6.71071        1.08453       -0.92787
