105
-153.06684334
Cl         0.03558        1.94210        3.06482
Pd        -0.48943        1.28578        0.97305
P         -1.11523        0.49632       -1.15403
N         -0.72052       -1.01219       -1.97374
C          0.19341       -2.00549       -1.62505
C          0.32869       -2.48388       -0.29729
C          1.28775       -3.47963       -0.01763
C          1.40676       -4.00164        1.39482
C          2.23346       -5.28932        1.53571
C          3.50299       -5.22216        0.68217
C          3.14695       -5.03690       -0.80014
C          2.08782       -3.99129       -1.04321
C          1.89902       -3.54177       -2.34399
C          0.96825       -2.57874       -2.63246
H          0.84638       -2.22833       -3.64254
H          2.50712       -3.95402       -3.13141
H          4.04324       -4.77319       -1.37625
H          4.12124       -4.37957        1.01670
H          2.48265       -5.48071        2.58902
H          1.85058       -3.21443        2.01499
C         -0.66753       -2.12226        0.73960
C         -0.24079       -1.53646        1.96298
C         -1.17106       -1.40513        2.99844
C         -2.47018       -1.81086        2.83685
C         -2.90884       -2.37444        1.64480
C         -4.34460       -2.83567        1.56457
C         -4.80985       -3.21972        0.15060
C         -3.72671       -4.01563       -0.58184
C         -2.43473       -3.19378       -0.69729
C         -2.00659       -2.53276        0.59063
H         -1.61819       -3.82974       -1.06134
H         -4.07891       -4.33393       -1.57330
H         -5.03740       -2.31170       -0.42107
H         -4.99079       -2.05078        1.97716
H         -3.17146       -1.69586        3.64601
H         -0.85752       -0.95118        3.92211
N          1.05489       -1.02873        2.14113
P          1.60043        0.19304        0.99361
C          2.61314       -0.36179       -0.36549
C          3.64541       -1.24153       -0.14861
C          4.46774       -1.59987       -1.20177
C          4.25991       -1.07432       -2.47065
C          3.23118       -0.16001       -2.65688
C          2.41135        0.19757       -1.60237
H          1.60784        0.90169       -1.73587
H          3.07290        0.26688       -3.63234
C          5.14612       -1.45898       -3.60323
H          5.27532       -2.29407       -1.04420
H          3.80169       -1.64143        0.84068
C          2.53434        1.51016        1.77992
C          3.26053        1.26408        2.92014
C          3.98153        2.28808        3.50734
C          3.98708        3.55951        2.94906
C          3.24839        3.78581        1.79543
C          2.52890        2.76085        1.20834
H          1.95717        2.93229        0.30927
H          3.23643        4.77100        1.36148
C          4.73613        4.67022        3.59920
H          4.54338        2.10565        4.40743
H          3.26540        0.27362        3.34536
H          1.21260       -0.59672        3.04235
H         -0.98795       -0.91775       -2.94542
C         -0.61523        1.87674       -2.19582
C         -0.86232        3.16478       -1.78500
C         -0.46235        4.23149       -2.56665
C          0.18270        4.01612       -3.77655
C          0.42487        2.70982       -4.17863
C          0.02110        1.64581       -3.39329
H          0.21914        0.63427       -3.70541
H          0.93592        2.53114       -5.10930
C          0.64290        5.16370       -4.60651
H         -0.64804        5.24028       -2.23953
H         -1.37283        3.32916       -0.85080
C         -2.91126        0.52717       -1.10508
C         -3.58326        0.80790       -2.27115
C         -4.96672        0.82901       -2.28183
C         -5.68572        0.56725       -1.12362
C         -4.98892        0.29537        0.04503
C         -3.60701        0.26062        0.04852
H         -3.06406        0.04364        0.95414
H         -5.53633        0.11527        0.95425
C         -7.17378        0.61618       -1.12194
H         -5.49628        1.05488       -3.19154
H         -3.02221        1.01366       -3.16939
Cl        -2.31922        2.59917        1.02716
H          2.79931       -5.98904       -1.21848
H          1.62793       -6.14694        1.21670
H          4.12126       -6.11910        0.82910
H          0.39831       -4.15871        1.79792
H         -3.52056       -4.94156       -0.03042
H         -2.56379       -2.41510       -1.45780
H         -4.46777       -3.69418        2.23565
H         -5.75131       -3.78580        0.18830
H          6.01109       -0.79689       -3.66094
H          5.51039       -2.48082       -3.48746
H          4.61490       -1.40379       -4.55451
H          4.10534        5.19133        4.32059
H          5.61451        4.29695        4.12756
H          5.07799        5.39881        2.86274
H          0.63968        4.90883       -5.66723
H         -0.00507        6.03110       -4.47302
H          1.65768        5.45640       -4.33354
H         -7.58959       -0.11382       -0.42590
H         -7.52790        1.60432       -0.82528
H         -7.57724        0.39674       -2.11144
