87
-129.17847700
P         -1.73699       -0.36972        0.12418
P          1.52325        0.17025       -0.15778
C         -1.40559        0.91780       -1.10734
C          1.20851       -0.85033       -1.60168
C         -0.53793        0.81072       -2.19204
C         -0.30246        1.95044       -2.98520
C         -0.96354        3.13127       -2.69418
C         -1.82680        3.21706       -1.62431
C         -2.03579        2.10827       -0.82694
C          1.96863       -1.96440       -1.86002
C          1.72535       -2.71617       -2.99277
C          0.71752       -2.34474       -3.85910
C         -0.06138       -1.22533       -3.61458
C          0.20013       -0.44933       -2.46761
Cl         1.38965        1.58701        2.79624
Cl        -1.33012       -0.18325        3.33837
H         -2.32482        4.14623       -1.40091
H         -2.68742        2.16979        0.03230
H          2.75992       -2.23948       -1.18309
H          2.31891       -3.59215       -3.19688
H         -0.78124        3.99649       -3.30887
H          0.52334       -2.93151       -4.74084
C         -0.63220       -4.70107       -0.70933
C         -1.36064       -4.00139       -1.66102
C         -1.69538       -2.67719       -1.40027
C         -1.30232       -2.07776       -0.22706
C         -0.61898       -2.79306        0.72889
C         -0.26942       -4.10674        0.48289
H         -0.36233       -5.72457       -0.90678
C         -1.76214       -4.65852       -2.93462
H         -2.25719       -2.11022       -2.12286
H         -0.40035       -2.33152        1.67890
H          0.27206       -4.66977        1.22551
C         -6.22224       -0.28289        0.90348
C         -5.73655       -0.33350       -0.38836
C         -4.37204       -0.35491       -0.61207
C         -3.50596       -0.32661        0.45657
C         -3.98980       -0.27757        1.74166
C         -5.35587       -0.24648        1.98703
H         -7.28421       -0.27234        1.08095
H         -6.41923       -0.35759       -1.22190
H         -3.97691       -0.38922       -1.61535
H         -3.29698       -0.26193        2.56357
C         -5.87500       -0.21760        3.38167
C          4.75023       -1.71083        2.45677
C          3.63395       -2.44647        2.11181
C          2.65883       -1.88403        1.31113
C          2.80662       -0.59486        0.85640
C          3.91628        0.14068        1.20258
C          4.91042       -0.40898        2.00309
H          5.50649       -2.14245        3.09009
H          3.51874       -3.45569        2.47194
H          1.78054       -2.44451        1.04032
H          4.00772        1.15780        0.86119
C          6.09156        0.40229        2.40470
C          2.93303        4.23294       -1.62747
C          3.51573        3.07873       -2.11308
C          3.09348        1.84606       -1.65051
C          2.09656        1.78073       -0.70555
C          1.52020        2.92828       -0.21376
C          1.93268        4.17502       -0.66678
H          3.25131        5.19349       -1.99528
H          4.29231        3.13712       -2.85796
H          3.52538        0.93313       -2.02988
H          0.73845        2.85976        0.52338
C          1.27642        5.41211       -0.16402
Pd        -0.02928        0.33792        1.59430
C          0.66038        1.92528       -4.12178
C         -1.15085       -0.86568       -4.56336
H          1.28786        2.81772       -4.11755
H          1.32330        1.06128       -4.06672
H          0.13482        1.88932       -5.07672
H         -0.74281       -0.44041       -5.48105
H         -1.73779       -1.74445       -4.83405
H         -1.83415       -0.13579       -4.12747
H         -2.36860       -3.99377       -3.55119
H         -0.88498       -4.94602       -3.51600
H         -2.34744       -5.55832       -2.73996
H         -6.04557       -1.22936        3.75206
H         -5.16832        0.27150        4.05371
H         -6.81854        0.32691        3.43958
H          6.36687        1.10947        1.62087
H          5.87873        0.97087        3.31102
H          6.95819       -0.23114        2.59922
H          0.99886        5.30815        0.88597
H          1.93984        6.27398       -0.24804
H          0.37004        5.62681       -0.73196
