111
-148.55556571
P         -1.36216        2.61189        1.26136
P         -0.29490       -0.27065        0.53750
C         -0.84354        1.48653        2.58610
C         -0.44071        0.20567        2.27299
C         -0.22002        4.06141        1.14956
C          0.57654        4.01907       -0.13720
C         -0.81700        1.91534        3.89769
H         -1.09557        2.92998        4.13110
C         -0.40954        1.04920        4.89751
H         -0.39266        1.38203        5.92249
C         -0.01676       -0.23753        4.58257
H          0.30733       -0.90947        5.36017
C         -0.02148       -0.65699        3.26441
H          0.31812       -1.64556        2.99810
Pd        -1.58999        1.27093       -0.60443
Cl        -2.67274        2.98188       -1.56814
Cl        -1.63375       -0.12692       -2.36265
C         -1.16872        5.27058        1.26947
C         -2.96141        3.48040        1.60663
H         -0.08975        4.01451       -1.00216
H          1.23535        4.88571       -0.22903
H          1.19307        3.11974       -0.19533
H         -1.39302        5.64191        0.26009
H         -0.66523        6.10311        1.78373
H         -3.49661        3.50694        0.64827
C         -2.49842        4.89843        1.98630
C         -3.79833        2.77512        2.65282
H          0.43954        3.99796        2.02496
H         -2.35737        4.94713        3.07475
H         -3.28683        5.63193        1.75809
H         -3.28243        2.73991        3.61261
H         -4.74987        3.28729        2.81254
H         -4.01314        1.74524        2.35859
C         -1.02240       -4.70531       -0.22391
C         -1.75552       -4.03203        0.78600
C         -1.49351       -2.68899        1.00343
C         -0.58366       -2.01091        0.23400
C          0.05408       -2.63391       -0.80645
C         -0.17690       -3.96914       -1.09238
O         -1.11428       -6.11742       -0.34786
C         -2.79871       -4.74575        1.66025
H         -1.99572       -2.15008        1.78823
H          0.73812       -2.05669       -1.40276
C          0.48529       -4.59349       -2.33100
C          3.67321        1.38053       -0.99182
C          3.41285        1.32821        0.40335
C          2.22352        0.75931        0.82669
C          1.28522        0.32404       -0.07303
C          1.47730        0.49788       -1.41912
C          2.64053        1.06073       -1.91280
O          4.97784        1.67898       -1.46179
C          4.35649        1.90224        1.47336
H          2.01192        0.66238        1.87755
H          0.67849        0.22488       -2.08644
C          2.71030        1.35952       -3.41991
C         -3.87946       -3.75344        2.14596
C         -3.52528       -5.84697        0.86672
C         -2.10268       -5.34958        2.88949
C         -0.40368       -5.69471       -2.93689
C          0.69234       -3.52674       -3.43062
C          1.85587       -5.16901       -1.94453
C         -0.13581       -6.83223        0.39622
H         -4.68564       -4.27944        2.65687
H         -3.47396       -3.02939        2.85120
H         -4.31335       -3.21116        1.30627
H         -3.98261       -5.43382       -0.03166
H         -2.83980       -6.63329        0.56048
H         -4.30978       -6.30899        1.46553
H         -1.34524       -6.07298        2.59791
H         -1.61067       -4.57236        3.47392
H         -2.81994       -5.85513        3.53557
H          0.03339       -6.09219       -3.85253
H         -0.53333       -6.52477       -2.24694
H         -1.39140       -5.30138       -3.17507
H          1.02712       -3.98693       -4.35995
H         -0.23649       -2.99467       -3.63507
H          1.44936       -2.79884       -3.14394
H          1.76019       -5.94225       -1.18629
H          2.35338       -5.60614       -2.80992
H          2.50159       -4.38858       -1.54247
H          0.46352       -7.44256       -0.27908
H          0.51263       -6.14093        0.93594
H         -0.62980       -7.49635        1.10524
C          5.78035        0.52054       -1.61383
C          3.54301        2.75915        2.46915
C          5.02942        0.74687        2.23175
C          5.43584        2.81807        0.87086
C          3.88277        2.28811       -3.77957
C          2.84468        0.04003       -4.19662
C          1.41389        2.07723       -3.85859
H          2.81690        2.16400        3.02035
H          4.19835        3.23031        3.20121
H          3.00427        3.54799        1.94529
H          4.28578        0.10522        2.70344
H          5.62266        0.12986        1.55916
H          5.68986        1.12503        3.01165
H          6.11270        2.25896        0.22897
H          4.98047        3.60535        0.27103
H          6.03380        3.28747        1.65166
H          4.83900        1.80695       -3.58781
H          3.85741        2.56334       -4.83367
H          3.84417        3.20217       -3.18800
H          2.89762        0.22297       -5.26950
H          3.74347       -0.49901       -3.90188
H          1.98959       -0.60821       -4.01017
H          0.53792        1.44139       -3.74255
H          1.46643        2.36743       -4.90747
H          1.25483        2.97897       -3.26812
H          6.76385        0.81029       -1.98435
H          5.89079        0.01556       -0.65521
H          5.31560       -0.16478       -2.32145
