171
-217.84393276
P         -1.64794        0.33304       -0.33641
P          1.61252       -0.38465       -0.26190
C         -0.92858        1.24486       -1.70476
C          0.90514       -1.43081       -1.53686
C         -0.11085        0.58853       -2.61815
C          0.51047        1.34315       -3.63216
C          0.26441        2.70373       -3.71188
C         -0.57528        3.32889       -2.81450
C         -1.16702        2.59354       -1.80694
C          1.14730       -2.78185       -1.48208
C          0.58442       -3.62717       -2.41721
C         -0.23626       -3.10904       -3.39627
C         -0.49518       -1.74994       -3.46647
C          0.10338       -0.88366       -2.53185
Cl         1.63972        0.45960        2.80796
Cl        -1.53051       -0.11249        2.99369
C         -1.38370       -1.22761       -4.53950
C          1.42990        0.71087       -4.61772
H         -0.76617        4.38656       -2.89495
H         -1.82476        3.07440       -1.10188
H          1.78297       -3.17843       -0.70727
H          0.78299       -4.68579       -2.37794
H          0.74174        3.27490       -4.49029
H         -0.68742       -3.76479       -4.12177
C         -4.00878       -3.25969       -1.73049
C         -2.96759       -3.45514       -0.83096
C         -2.24682       -2.34173       -0.41645
C         -2.55763       -1.09784       -0.90502
C         -3.58603       -0.92070       -1.79779
C         -4.33995       -2.00510       -2.22925
H         -4.58271       -4.11389       -2.03635
H         -1.43983       -2.43143        0.29030
H         -3.81184        0.07483       -2.14299
C         -4.31534        2.83547        2.35630
C         -3.01430        3.26307        2.12241
C         -2.22915        2.51030        1.25946
C         -2.72582        1.37397        0.66927
C         -4.00884        0.95722        0.92703
C         -4.83316        1.68430        1.77680
H         -4.94334        3.39950        3.01986
H         -1.20802        2.79549        1.07060
H         -4.35416        0.04291        0.47830
C          4.41383       -2.72128        2.43641
C          3.06213       -3.04103        2.44148
C          2.22401       -2.33379        1.58825
C          2.72749       -1.34706        0.77638
C          4.06615       -1.04233        0.78934
C          4.94181       -1.73183        1.61759
H          5.07213       -3.24486        3.10503
H          1.16524       -2.52754        1.57053
H          4.42085       -0.24558        0.16094
C          3.87667        3.16220       -1.91564
C          4.19928        1.89162       -2.37450
C          3.47065        0.81891       -1.87320
C          2.47871        1.02560       -0.94561
C          2.17305        2.28785       -0.50221
C          2.86261        3.38925       -0.99407
H          4.44640        4.00029       -2.27233
H          3.67715       -0.18922       -2.19060
H          1.39774        2.40227        0.23527
Pd        -0.02993        0.10654        1.33789
C         -3.88099       -5.35573        0.51896
C         -2.67306       -4.86404       -0.29857
C         -1.42934       -4.87511        0.60980
C         -2.42082       -5.82008       -1.47944
H         -4.08179       -4.68129        1.35124
H         -4.77940       -5.40512       -0.09536
H         -3.69838       -6.35013        0.92591
H         -0.55121       -4.51741        0.07323
H         -1.58022       -4.24581        1.48664
H         -1.21537       -5.88437        0.96129
H         -2.17113       -6.81991       -1.12478
H         -3.29876       -5.90475       -2.11846
H         -1.59435       -5.46413       -2.09304
C         -6.17833       -3.10884       -3.60435
C         -5.53355       -1.77814       -3.17025
C         -5.07223       -1.03196       -4.43582
C         -6.59317       -0.93629       -2.43768
H         -5.45475       -3.74693       -4.11156
H         -6.57828       -3.65080       -2.74762
H         -7.00371       -2.93142       -4.29378
H         -4.34212       -1.62261       -4.98684
H         -5.91381       -0.83960       -5.10115
H         -4.61804       -0.07271       -4.19131
H         -6.19066        0.03290       -2.14476
H         -7.46064       -0.75988       -3.07341
H         -6.93366       -1.44766       -1.53765
C         -2.13170        5.56801        1.71238
C         -2.41837        4.50938        2.79122
C         -1.11055        4.12427        3.51065
C         -3.37977        5.11530        3.83188
H         -1.45333        5.18127        0.95416
H         -3.05247        5.86601        1.21125
H         -1.67901        6.45874        2.14762
H         -0.67802        4.98381        4.02216
H         -1.29501        3.34664        4.25151
H         -0.36599        3.74553        2.81265
H         -4.30622        5.44923        3.36522
H         -3.62405        4.38945        4.60733
H         -2.92769        5.97977        4.31799
C         -6.36218        0.97943        3.63311
C         -6.26035        1.23295        2.11775
C         -6.63537       -0.06718        1.38096
C         -7.25594        2.33201        1.70395
H         -7.35858        0.63136        3.90481
H         -5.64259        0.22236        3.94429
H         -6.15933        1.88636        4.20136
H         -5.96722       -0.88299        1.65646
H         -7.65127       -0.37454        1.62866
H         -6.58623        0.07160        0.30209
H         -7.06552        3.26167        2.23886
H         -7.17912        2.53809        0.63646
H         -8.28121        2.02952        1.91644
C          3.28281       -5.42767        3.19351
C          2.53115       -4.10197        3.41516
C          1.02647       -4.35796        3.20805
C          2.74953       -3.61095        4.85750
H          3.16373       -5.76964        2.16552
H          4.34876       -5.31896        3.38923
H          2.90211       -6.20635        3.85426
H          0.83085       -4.70058        2.19290
H          0.66520       -5.12546        3.89232
H          0.44399       -3.45489        3.38989
H          2.23647       -2.66333        5.02096
H          2.36631       -4.33262        5.57862
H          3.80775       -3.45791        5.06623
C          7.25630       -2.67602        1.38260
C          6.44013       -1.40338        1.67575
C          6.78507       -0.87444        3.07942
C          6.82572       -0.33085        0.63790
H          7.06571       -3.45063        2.12430
H          7.00038       -3.07960        0.40308
H          8.32533       -2.46394        1.39136
H          6.20015        0.01623        3.30833
H          6.57201       -1.61945        3.84520
H          7.84088       -0.61370        3.15038
H          7.89500       -0.12296        0.67430
H          6.58728       -0.66324       -0.37223
H          6.30246        0.60626        0.82734
C          5.19172        2.61594       -4.57492
C          5.37446        1.70510       -3.34542
C          5.48084        0.24659       -3.83199
C          6.68130        2.07898       -2.62268
H          4.25915        2.39302       -5.09091
H          5.17475        3.66793       -4.29352
H          6.00756        2.47794       -5.28433
H          5.67428       -0.43232       -3.00178
H          4.56398       -0.06884       -4.32929
H          6.29901        0.13493       -4.54335
H          6.66587        3.11795       -2.29488
H          6.82762        1.45420       -1.74244
H          7.54218        1.94657       -3.27777
C          2.31140        5.72462       -1.73955
C          2.56494        4.81779       -0.52031
C          3.76974        5.34455        0.27873
C          1.31714        4.86040        0.38068
H          1.48983        5.33844       -2.34165
H          2.05320        6.73591       -1.42583
H          3.19137        5.79087       -2.37788
H          3.96827        4.70650        1.13975
H          4.66959        5.36683       -0.33517
H          3.58579        6.35552        0.64188
H          1.08575        5.88365        0.67611
H          0.45074        4.45900       -0.14375
H          1.47121        4.28219        1.29116
H         -0.81302       -0.98579       -5.43686
H          1.69709       -0.30506       -4.32426
H         -1.90521       -0.32572       -4.21582
H         -2.13641       -1.96776       -4.81288
H          2.35473        1.28132       -4.70047
H          0.97290        0.66893       -5.60738
