111
-148.55136526
P         -2.62496        2.11758        0.45502
P          0.05888        0.42383        0.55663
C         -1.85672        1.72152        2.05304
C         -0.66952        1.02306        2.08883
C         -3.46569        3.76737        0.54123
C         -2.97872        4.70665       -0.53971
C         -2.45949        2.10759        3.23370
H         -3.39511        2.64148        3.20505
C         -1.86713        1.79581        4.44545
H         -2.33832        2.09717        5.36676
C         -0.67544        1.09730        4.47613
H         -0.21599        0.85191        5.41945
C         -0.07620        0.70590        3.29246
H          0.84598        0.14599        3.29667
Pd        -1.04493        1.53308       -1.14279
Cl        -2.40505        2.48272       -2.64853
Cl         0.62463        0.95828       -2.53370
C         -4.96134        3.40302        0.43073
C         -4.06609        1.03046        0.04858
H         -3.22944        4.31866       -1.52749
H         -3.43798        5.69397       -0.45058
H         -1.89421        4.83176       -0.49918
H         -5.49698        4.20912       -0.09149
H         -5.40995        3.35273        1.43375
H         -3.78105        0.43991       -0.83309
C         -5.17537        2.04507       -0.29570
C         -4.40003        0.11973        1.21000
H         -3.23256        4.18406        1.53033
H         -6.15652        1.61847       -0.04069
H         -5.19835        2.21557       -1.38223
H         -4.66852        0.70344        2.09241
H         -5.24263       -0.53582        0.97725
H         -3.54690       -0.50726        1.47810
C         -1.27864       -3.84816       -0.29122
C         -0.52159       -3.12996       -1.25155
C         -0.16972       -1.82382       -0.96076
C         -0.46296       -1.26253        0.25292
C         -1.10074       -1.98663        1.22535
C         -1.49626       -3.29397        0.99653
O         -1.84626       -5.10642       -0.62608
C         -0.09441       -3.72782       -2.60084
H          0.32545       -1.20830       -1.69149
H         -1.28826       -1.51190        2.17191
C         -2.16945       -4.08641        2.12835
C          4.59561        0.60593        0.28708
C          3.96375       -0.54142        0.83159
C          2.58050       -0.55677        0.89858
C          1.84232        0.53572        0.52461
C          2.45299        1.68888        0.10806
C          3.83244        1.76894        0.00861
O          5.98179        0.57522       -0.02071
C          4.74427       -1.77846        1.30222
H          2.05477       -1.43868        1.22273
H          1.83039        2.52143       -0.17120
C          4.47067        3.08674       -0.45676
C          0.11991       -5.24836       -2.49411
C         -1.16434       -3.41244       -3.65700
C          1.24950       -3.11696       -3.06201
C         -1.71064       -3.56777        3.51018
C         -3.69412       -3.92623        2.03049
C         -1.78804       -5.57621        2.05643
C         -3.13313       -5.02125       -1.22531
H         -0.80380       -5.76391       -2.24452
H          0.48296       -5.65998       -3.43551
H          0.85017       -5.47883       -1.71907
H         -1.29339       -2.33555       -3.76373
H         -0.88447       -3.81683       -4.62935
H         -2.12780       -3.83454       -3.38133
H          1.14763       -2.06415       -3.32060
H          2.00391       -3.20594       -2.28076
H          1.62332       -3.62859       -3.94853
H         -2.08564       -4.20886        4.30767
H         -0.62306       -3.55191        3.57742
H         -2.08261       -2.56312        3.70680
H         -4.06947       -4.29410        1.07898
H         -4.19603       -4.47744        2.82531
H         -3.97857       -2.87821        2.11658
H         -2.21276       -6.13048        2.89301
H         -2.15205       -6.03423        1.13987
H         -0.70561       -5.69705        2.08373
H         -3.84266       -5.61443       -0.64850
H         -3.46874       -3.98400       -1.26092
H         -3.09576       -5.42587       -2.23645
C          6.27122        0.10549       -1.33168
C          6.13302       -1.38997        1.84103
C          3.99691       -2.48556        2.45614
C          4.88459       -2.76473        0.13255
C          5.86814        3.27787        0.15994
C          4.56167        3.08876       -1.99051
C          3.61447        4.29460       -0.01295
H          6.65861       -2.26009        2.23364
H          6.75421       -0.95496        1.06232
H          6.04219       -0.65807        2.64293
H          4.60525       -3.28518        2.87823
H          3.76615       -1.78265        3.25623
H          3.06588       -2.93790        2.11779
H          5.42026       -2.31557       -0.70034
H          5.42647       -3.65919        0.43870
H          3.90439       -3.07194       -0.23150
H          5.81692        3.23333        1.24729
H          6.55820        2.50673       -0.17295
H          6.29177        4.24184       -0.12077
H          4.99299        4.02046       -2.35550
H          5.17892        2.26900       -2.34989
H          3.57269        2.97673       -2.43443
H          3.41942        4.25858        1.05853
H          2.65960        4.32604       -0.53547
H          4.12699        5.23186       -0.22857
H          6.81850        0.87078       -1.88184
H          6.89767       -0.78435       -1.27261
H          5.34844       -0.13379       -1.86187
