87
-129.17480438
P         -1.70128       -0.43453        0.10425
P          1.58670        0.11841       -0.02483
C         -1.50317        0.75984       -1.23738
C          1.26897       -0.91392       -1.47830
C         -0.54900        0.63792       -2.24489
C         -0.37255        1.70814       -3.14306
C         -1.17758        2.82925       -3.03029
C         -2.11782        2.93209       -2.02771
C         -2.26230        1.90081       -1.11991
C          2.00751       -2.06369       -1.63442
C          1.78319       -2.90716       -2.70428
C          0.79121       -2.60875       -3.61188
C          0.01180       -1.47479       -3.46365
C          0.26462       -0.59686       -2.39003
Cl         1.17267        2.27357        2.37583
Cl        -1.89596        1.79343        2.42461
H         -2.72128        3.82036       -1.93782
H         -2.95180        1.99279       -0.29458
H          2.73887       -2.33486       -0.89381
H          2.36669       -3.80641       -2.81573
H         -1.04656        3.63740       -3.72979
H          0.59934       -3.27169       -4.43850
C         -0.28210       -4.70568       -0.51534
C         -1.27668       -4.19311       -1.33715
C         -1.70623       -2.88761       -1.12529
C         -1.13481       -2.12016       -0.13800
C         -0.15408       -2.63820        0.67656
C          0.27743       -3.93605        0.48549
H          0.05346       -5.71708       -0.66939
C         -1.88025       -5.02956       -2.40967
H         -2.48074       -2.46527       -1.74393
H          0.27780       -2.02624        1.45015
H          1.05299       -4.34342        1.11315
C         -5.99244       -0.64582        1.58264
C         -5.73784       -0.44322        0.24041
C         -4.43297       -0.36862       -0.21015
C         -3.39700       -0.49389        0.68596
C         -3.64606       -0.71127        2.02048
C         -4.95203       -0.77625        2.49256
H         -7.00789       -0.70656        1.93548
H         -6.55446       -0.34461       -0.45589
H         -4.21619       -0.21685       -1.25586
H         -2.82024       -0.82191        2.70401
C         -5.22135       -1.01572        3.93649
C          4.59738       -1.94174        2.74046
C          3.37837       -1.53743        3.24442
C          2.46470       -0.90687        2.42210
C          2.76459       -0.68910        1.09535
C          3.98833       -1.08300        0.59917
C          4.92392       -1.71054        1.41273
H          5.30868       -2.43852        3.37815
H          3.13929       -1.71031        4.28105
H          1.52403       -0.57479        2.82662
H          4.22620       -0.91391       -0.43798
C          6.22819       -2.16250        0.85597
C          3.18967        4.23106       -1.19293
C          4.07830        3.20696       -0.93559
C          3.60813        1.95645       -0.58241
C          2.25383        1.72888       -0.49882
C          1.37090        2.75249       -0.75262
C          1.82262        4.02135       -1.09412
H          3.55253        5.20695       -1.46745
H          5.13931        3.38383       -1.00325
H          4.30073        1.16558       -0.35613
H          0.31293        2.56723       -0.68597
C          0.86076        5.12180       -1.37361
Pd        -0.17643        0.74842        1.40908
C          0.68006        1.67499       -4.19653
C         -1.08467       -1.21385       -4.43757
H          1.36985        0.84352       -4.04838
H          0.23661        1.57448       -5.18791
H          1.26934        2.59312       -4.18243
H         -1.61819       -2.13436       -4.67884
H         -1.81455       -0.50906       -4.03755
H         -0.69003       -0.80132       -5.36681
H         -2.60759       -5.72813       -1.99379
H         -2.39133       -4.41341       -3.15085
H         -1.11565       -5.60752       -2.93090
H         -4.46437       -0.53731        4.55972
H         -6.19244       -0.61391        4.22903
H         -5.21668       -2.08348        4.15987
H          6.14578       -3.17011        0.44603
H          6.56467       -1.50042        0.05675
H          7.00243       -2.17329        1.62446
H          0.70325        5.23633       -2.44689
H         -0.10689        4.92555       -0.90958
H          1.22804        6.07161       -0.98256
