111
-148.54650539
P         -2.50363        2.02368       -0.56033
P          0.02586        0.44722        0.46155
C         -1.94015        2.25042        1.14655
C         -0.80999        1.59005        1.57528
C         -2.84195        3.67142       -1.33619
C         -1.83715        4.00025       -2.41842
C         -2.60989        3.09755        2.00625
H         -3.48272        3.62668        1.66080
C         -2.15196        3.26729        3.30142
H         -2.67557        3.92670        3.97421
C         -1.02445        2.59454        3.73196
H         -0.66928        2.72488        4.74094
C         -0.35129        1.75187        2.86562
H          0.52666        1.21457        3.18738
Pd        -1.06418        0.52871       -1.59238
Cl        -1.98335        1.04205       -3.56611
Cl         0.43671       -0.98063       -2.30701
C         -4.30214        3.55439       -1.82866
C         -4.15984        1.22447       -0.76853
H         -0.81391        3.95404       -2.03790
H         -1.91314        3.29347       -3.24481
H         -2.00182        4.99969       -2.82790
H         -4.39064        4.02661       -2.81750
H         -4.96663        4.13219       -1.16982
H         -3.97671        0.19475       -1.10517
C         -4.79138        2.07863       -1.88693
C         -4.95029        1.23204        0.52166
H         -2.76415        4.40444       -0.52151
H         -5.88801        2.02893       -1.81563
H         -4.53603        1.65028       -2.86765
H         -5.15773        2.25488        0.84013
H         -5.91042        0.72333        0.40687
H         -4.40108        0.74145        1.32728
C         -1.25710       -3.83345        1.30453
C          0.05823       -3.59061        0.83148
C          0.44202       -2.27944        0.60387
C         -0.40106       -1.23817        0.88950
C         -1.63544       -1.46217        1.44238
C         -2.07351       -2.74786        1.71417
O         -1.77590       -5.15533        1.30997
C          1.03833       -4.72409        0.49371
H          1.39345       -2.05383        0.15490
H         -2.26592       -0.61275        1.64155
C         -3.43394       -2.93674        2.40252
C          4.49260        1.27837        0.11315
C          3.61270        1.64412       -0.93969
C          2.25904        1.40316       -0.77409
C          1.78559        0.74301        0.32972
C          2.64598        0.27174        1.28749
C          4.01120        0.48993        1.19192
O          5.82504        1.76524        0.12442
C          4.07339        2.25981       -2.27190
H          1.55388        1.72892       -1.52031
H          2.23707       -0.27262        2.12169
C          4.92152       -0.14630        2.25638
C          2.49655       -4.26728        0.72007
C          0.80878       -5.94978        1.39647
C          0.86778       -5.11341       -0.98259
C         -3.68167       -1.80212        3.42257
C         -4.54494       -2.90540        1.34195
C         -3.48959       -4.25872        3.18975
C         -2.45341       -5.50734        0.10975
H          3.18752       -5.10032        0.59283
H          2.79304       -3.49533        0.01170
H          2.62470       -3.87796        1.72943
H          0.88035       -5.67116        2.44729
H         -0.17399       -6.38478        1.23308
H          1.54860       -6.72531        1.19974
H          1.04953       -4.25570       -1.62989
H          1.56528       -5.90250       -1.26212
H         -0.14035       -5.46949       -1.18143
H         -2.85273       -1.72775        4.12591
H         -3.80113       -0.83636        2.93595
H         -4.59083       -1.98719        3.99419
H         -4.53519       -1.95990        0.80037
H         -4.41582       -3.70371        0.61427
H         -5.52660       -3.02185        1.80037
H         -3.40446       -5.11860        2.53061
H         -2.67489       -4.30997        3.91126
H         -4.42995       -4.35232        3.73241
H         -1.99347       -6.39628       -0.32182
H         -3.49685       -5.73367        0.32807
H         -2.40354       -4.68766       -0.60824
C          5.94259        3.02811        0.75809
C          5.59193        2.13037       -2.48191
C          3.39061        1.51441       -3.44098
C          3.67242        3.74331       -2.31774
C          6.40235       -0.14731        1.83794
C          4.76375        0.61461        3.58294
C          4.51487       -1.62097        2.46643
H          5.90565        1.09150       -2.38588
H          5.88362        2.48427       -3.47045
H          6.14250        2.71399       -1.74789
H          2.31111        1.65506       -3.43734
H          3.76093        1.87365       -4.40070
H          3.58900        0.44466       -3.38245
H          3.96545        4.19651       -3.26440
H          2.59434        3.85912       -2.21008
H          4.14862        4.30439       -1.51589
H          7.01411       -0.68952        2.55858
H          6.52584       -0.61872        0.86356
H          6.79382        0.86494        1.77061
H          5.38239        0.17077        4.36253
H          5.05694        1.65720        3.47489
H          3.72884        0.59392        3.92308
H          5.18856       -2.11409        3.16677
H          4.55404       -2.16551        1.52364
H          3.50737       -1.71045        2.86887
H          5.62789        2.95491        1.79791
H          6.98186        3.35501        0.71830
H          5.31502        3.76010        0.25228
