111
-148.55227522
P         -1.61064        2.66902        0.48106
P         -0.25346       -0.18846        0.55354
C         -1.15372        1.92691        2.07252
C         -0.61998        0.65634        2.10477
C         -0.53445        4.13344        0.13823
C          0.34775        3.87690       -1.06470
C         -1.30115        2.63965        3.24528
H         -1.67792        3.64870        3.21080
C         -0.93981        2.06512        4.45166
H         -1.05975        2.61978        5.36795
C         -0.41867        0.78588        4.48208
H         -0.13175        0.34086        5.42059
C         -0.24762        0.08326        3.30292
H          0.19068       -0.90249        3.30519
Pd        -1.53041        0.91697       -1.02335
Cl        -3.03802        1.97166       -2.30289
Cl        -1.28540       -0.84370       -2.40161
C         -1.54317        5.28471       -0.04798
C         -3.27238        3.48704        0.50158
H          0.96653        4.74641       -1.29843
H          1.01011        3.02482       -0.89771
H         -0.25696        3.65239       -1.94580
H         -1.69849        5.44461       -1.12373
H         -1.12185        6.22809        0.33079
H         -3.71062        3.29567       -0.48642
C         -2.91049        4.97773        0.62748
C         -4.18037        2.94844        1.58671
H          0.06795        4.28753        1.04324
H         -2.86608        5.24526        1.69204
H         -3.70961        5.60264        0.20010
H         -5.16391        3.42257        1.55387
H         -4.32081        1.86994        1.48449
H         -3.76405        3.13115        2.57750
C         -0.76537       -4.70849        0.83055
C         -1.65421       -3.84684        1.52154
C         -1.44797       -2.48000        1.42836
C         -0.44400       -1.96562        0.64887
C          0.35160       -2.79097       -0.10174
C          0.18736       -4.16609       -0.06918
O         -0.81081       -6.10936        1.06143
C         -2.81042       -4.37607        2.38457
H         -2.07019       -1.79091        1.97342
H          1.10642       -2.34316       -0.72335
C          1.03509       -5.04455       -1.00293
C          3.65230        1.55543       -1.01319
C          2.85600        0.75028       -1.86714
C          1.68886        0.20951       -1.35604
C          1.34371        0.37643       -0.04062
C          2.15708        1.07721        0.81081
C          3.33847        1.64716        0.36693
O          4.73497        2.30501       -1.54614
C          3.19105        0.52266       -3.34911
H          0.99157       -0.29914       -1.99804
H          1.83689        1.20480        1.82991
C          4.21898        2.40703        1.37075
C         -2.30744       -4.61481        3.81631
C         -3.96931       -3.35469        2.43427
C         -3.38583       -5.67881        1.79960
C          0.26684       -6.31171       -1.42062
C          1.37841       -4.27958       -2.30105
C          2.34517       -5.42597       -0.29771
C          0.05431       -6.55630        2.09769
H         -1.92460       -3.69079        4.24910
H         -3.10993       -4.98064        4.45634
H         -1.50334       -5.34639        3.83466
H         -4.83797       -3.77966        2.93671
H         -3.69134       -2.45608        2.98309
H         -4.27326       -3.06421        1.42894
H         -2.64815       -6.47742        1.80832
H         -4.24693       -6.01971        2.37382
H         -3.70332       -5.52850        0.76831
H         -0.68287       -6.04802       -1.88487
H          0.84154       -6.90137       -2.13436
H          0.05409       -6.94748       -0.56484
H          0.47858       -3.87148       -2.76084
H          2.06836       -3.46009       -2.10950
H          1.85679       -4.93827       -3.02548
H          2.97317       -6.03729       -0.94531
H          2.90910       -4.53439       -0.02442
H          2.15412       -5.98845        0.61291
H          0.76495       -7.27799        1.69533
H          0.59548       -5.71462        2.53172
H         -0.53028       -7.05158        2.87276
C          4.37760        3.60674       -1.99589
C          2.67240       -0.85464       -3.81994
C          2.51404        1.61514       -4.19114
C          4.71189        0.52825       -3.58772
C          3.77445        3.87703        1.42222
C          4.07907        1.80277        2.78686
C          5.70710        2.31203        0.98871
H          3.05545       -1.64770       -3.17935
H          1.58470       -0.90284       -3.81651
H          2.99791       -1.06257       -4.83891
H          2.72330        1.47712       -5.25152
H          1.43302        1.59138       -4.05451
H          2.86091        2.60547       -3.90578
H          5.14850        1.49610       -3.35643
H          5.20090       -0.21619       -2.96031
H          4.94597        0.30196       -4.62767
H          4.37321        4.44127        2.13671
H          3.87335        4.35436        0.45042
H          2.72972        3.95279        1.72311
H          4.26206        0.72871        2.76976
H          4.79661        2.25360        3.47207
H          3.08814        1.97601        3.20410
H          5.90336        2.78900        0.03192
H          6.01747        1.27051        0.91207
H          6.33493        2.79924        1.73432
H          4.96664        4.35274       -1.46264
H          4.59399        3.70062       -3.05988
H          3.31697        3.79132       -1.82484
