105
-153.06721812
Cl        -0.01798        1.80748        3.12753
Pd        -0.53193        1.23940        1.01273
P         -1.15337        0.50153       -1.13533
N         -0.81510       -1.02592       -1.94309
C          0.14480       -1.98945       -1.63145
C          0.32178       -2.48552       -0.31468
C          1.30678       -3.46524       -0.07322
C          1.46700       -4.00890        1.32689
C          2.31978       -5.28338        1.42642
C          3.56942       -5.17739        0.54780
C          3.17904       -4.97077       -0.92305
C          2.09511       -3.94173       -1.12445
C          1.87048       -3.47219       -2.41241
C          0.91214       -2.52614       -2.66462
H          0.75906       -2.16370       -3.66615
H          2.47084       -3.85694       -3.21945
H          4.05790       -4.67870       -1.51217
H          4.17994       -4.33055        0.88563
H          2.59483       -5.48916        2.47054
H          1.91014       -3.22441        1.95097
C         -0.65305       -2.15492        0.75237
C         -0.20375       -1.57485        1.97062
C         -1.11075       -1.46190        3.02884
C         -2.41136       -1.87167        2.89098
C         -2.87307       -2.42668        1.70365
C         -4.31101       -2.88504        1.64805
C         -4.80039       -3.27669        0.24419
C         -3.72554       -4.06546       -0.50812
C         -2.44400       -3.23189       -0.65126
C         -1.99208       -2.57460        0.63005
H         -1.63055       -3.85806       -1.03853
H         -4.09471       -4.38983       -1.49140
H         -5.04693       -2.37203       -0.32505
H         -4.94829       -2.09534        2.06556
H         -3.09603       -1.76580        3.71549
H         -0.78017       -1.01234        3.94870
N          1.08604       -1.04328        2.11569
P          1.57440        0.17623        0.93938
C          2.63359       -0.38616       -0.38177
C          2.45664        0.14270       -1.63541
C          3.31033       -0.22335       -2.65966
C          4.34876       -1.11551       -2.42598
C          4.53114       -1.60933       -1.14058
C          3.67443       -1.24270       -0.11810
H          3.81071       -1.61777        0.88374
H          5.34652       -2.28474       -0.94585
C          5.27182       -1.50866       -3.52573
H          3.17119        0.17971       -3.64811
H          1.64674        0.83116       -1.80487
C          2.46038        1.54461        1.69563
C          3.21899        1.34590        2.82374
C          3.90172        2.40940        3.38585
C          3.83685        3.67315        2.81398
C          3.06699        3.85119        1.67235
C          2.38578        2.78695        1.11041
H          1.78993        2.92124        0.22065
H          3.00065        4.82954        1.22794
C          4.54492        4.82518        3.43758
H          4.48825        2.26401        4.27690
H          3.27842        0.36184        3.25953
H          1.26150       -0.60675        3.01138
H         -1.09422       -0.91841       -2.90994
C         -0.56503        1.86516       -2.15118
C         -0.71212        3.15779       -1.70744
C         -0.23284        4.20977       -2.46396
C          0.40063        3.97487       -3.67633
C          0.52106        2.66585       -4.12227
C          0.03930        1.61647       -3.36157
H          0.15169        0.60110       -3.70264
H          0.99789        2.47314       -5.06818
C          0.90088        5.10783       -4.50310
H         -0.35029        5.22221       -2.11707
H         -1.21534        3.33820       -0.77218
C         -2.94656        0.59619       -1.10905
C         -3.60102        1.04129       -2.23297
C         -4.98281        1.10885       -2.24340
C         -5.71700        0.72694       -1.12877
C         -5.03682        0.28819       -0.00160
C         -3.65645        0.21147        0.00145
H         -3.12421       -0.12572        0.87585
H         -5.59545        0.01347        0.87660
C         -7.20252        0.82710       -1.12438
H         -5.49946        1.46462       -3.11837
H         -3.02806        1.33822       -3.09728
Cl        -2.35168        2.56393        1.00931
H          2.84118       -5.92140       -1.35266
H          1.72319       -6.14613        1.10439
H          4.20624       -6.06575        0.66453
H          0.47087       -4.19147        1.74943
H         -3.49977       -4.98777        0.04168
H         -2.59907       -2.45024       -1.40377
H         -4.42593       -3.73881        2.32661
H         -5.73612       -3.85053        0.30173
H          6.12365       -0.82934       -3.57844
H          5.65476       -2.51905       -3.37504
H          4.76415       -1.48872       -4.49116
H          4.83967        5.55957        2.68667
H          3.90342        5.32550        4.16423
H          5.44880        4.49939        3.95422
H          1.76033        4.80737       -5.10408
H          0.12436        5.46519       -5.18076
H          1.21226        5.94478       -3.87646
H         -7.60839        0.71671       -2.13093
H         -7.64691        0.04953       -0.50139
H         -7.52360        1.79447       -0.73584
