111
-148.55041984
P         -2.11969        2.57930        0.19039
P         -0.29669       -0.02073        0.50818
C         -1.75661        1.91904        1.83727
C         -0.96573        0.79863        1.97205
C         -1.71653        4.38544        0.14777
C         -0.75879        4.70368       -0.97935
C         -2.20846        2.58367        2.95945
H         -2.80228        3.47602        2.84635
C         -1.87343        2.11827        4.21913
H         -2.22872        2.63531        5.09553
C         -1.06812        1.00407        4.35277
H         -0.79154        0.65108        5.33263
C         -0.60308        0.35053        3.22574
H          0.06635       -0.49070        3.31604
Pd        -1.01826        1.22398       -1.31698
Cl        -2.01145        2.42589       -2.93397
Cl         0.20339       -0.06068       -2.69451
C         -3.10069        5.05085        0.00226
C         -3.91754        2.63232       -0.24884
H         -1.21185        4.47300       -1.94476
H         -0.48463        5.76128       -0.98813
H          0.15805        4.11583       -0.89914
H         -3.00049        5.98301       -0.57269
H         -3.47749        5.35246        0.99058
H         -4.04301        1.95422       -1.10436
C         -4.12952        4.10047       -0.67216
C         -4.79264        2.18899        0.90385
H         -1.25918        4.62656        1.11720
H         -5.15779        4.40796       -0.43224
H         -4.04095        4.18850       -1.76506
H         -4.69145        2.86907        1.75070
H         -5.84811        2.17359        0.62195
H         -4.51947        1.18860        1.24778
C         -1.17483       -4.50336        0.28133
C         -0.57047       -3.83131       -0.81017
C         -0.36266       -2.46762       -0.70334
C         -0.65483       -1.78260        0.44686
C         -1.15963       -2.44785        1.53466
C         -1.39450       -3.81242        1.49985
O         -1.58796       -5.85550        0.14391
C         -0.16838       -4.54772       -2.10930
H          0.01370       -1.90573       -1.53887
H         -1.38679       -1.88232        2.41912
C         -1.89693       -4.51794        2.77026
C          4.10439        1.06567        0.12618
C          3.71710       -0.29034       -0.03000
C          2.37423       -0.60629        0.08584
C          1.45006        0.35061        0.41038
C          1.83025        1.64399        0.65908
C          3.15807        2.02688        0.56615
O          5.42797        1.47278       -0.18980
C          4.71427       -1.41023       -0.36611
H          2.02852       -1.60834       -0.09337
H          1.06512        2.35536        0.92007
C          3.55004        3.46991        0.92029
C         -1.35429       -4.53217       -3.08547
C          1.02826       -3.83511       -2.78080
C          0.27379       -5.99546       -1.82968
C         -1.39178       -3.78972        4.03711
C         -3.43296       -4.51181        2.78354
C         -1.37054       -5.96283        2.84662
C         -2.92017       -6.01187       -0.32877
H         -1.65078       -3.50858       -3.31346
H         -1.09562       -5.02527       -4.02211
H         -2.21841       -5.04090       -2.66529
H          1.39093       -4.40870       -3.63338
H          0.75516       -2.84907       -3.15330
H          1.85420       -3.72118       -2.08008
H          1.08899       -6.01443       -1.10706
H         -0.54251       -6.58949       -1.42663
H          0.61724       -6.48337       -2.74152
H         -1.63440       -4.36006        4.93349
H         -0.31011       -3.66134        4.00529
H         -1.85152       -2.80894        4.14966
H         -3.83739       -5.03551        1.92089
H         -3.81747       -4.99538        3.68120
H         -3.81415       -3.49115        2.76016
H         -1.67273       -6.44143        3.77781
H         -1.75123       -6.56821        2.02789
H         -0.28237       -5.97780        2.79504
H         -2.91342       -6.57272       -1.26320
H         -3.50305       -6.57450        0.40029
H         -3.38313       -5.03788       -0.49201
C          5.60820        1.85131       -1.54874
C          6.10794       -1.11473        0.21720
C          4.25131       -2.75295        0.24479
C          4.79783       -1.56713       -1.89228
C          3.52410        4.33680       -0.34743
C          2.55956        4.07006        1.94456
C          4.94788        3.51423        1.56360
H          6.04779       -0.95989        1.29392
H          6.79373       -1.94088        0.03093
H          6.54330       -0.22167       -0.22317
H          5.01314       -3.52091        0.11262
H          4.06365       -2.64783        1.31299
H          3.34240       -3.12174       -0.22711
H          5.13676       -0.64829       -2.36491
H          5.48930       -2.36331       -2.16670
H          3.82027       -1.80970       -2.30833
H          4.24242        3.98334       -1.08243
H          2.53859        4.31444       -0.81063
H          3.76492        5.37399       -0.11561
H          2.90799        5.04065        2.29684
H          1.57337        4.22391        1.50893
H          2.45444        3.41778        2.81117
H          5.71339        3.17382        0.87034
H          4.98558        2.87350        2.44397
H          5.20664        4.52751        1.86977
H          6.30362        1.16661       -2.03343
H          4.65431        1.83428       -2.07758
H          6.03325        2.85400       -1.59315
