45
-71.81484867
C          0.33350        0.43404        2.53170
P          0.95018        0.54716        0.81793
P         -1.62195        0.38219       -1.00836
C         -2.42371        0.17622       -2.63314
Cl         1.75903       -2.45948        0.08733
H         -0.75007        0.50835        2.53968
H         -1.69800        0.33432       -3.42579
Cl        -1.16899       -2.71413       -1.53790
C          0.33348        2.03346        0.00034
C         -0.77212        1.96342       -0.81947
C         -1.25080        3.10065       -1.43688
C         -0.60807        4.31044       -1.24096
C          0.50400        4.37920       -0.42407
C          0.97567        3.23796        0.20043
H         -2.12665        3.03794       -2.06193
H         -0.97788        5.19991       -1.72398
H          1.00402        5.32143       -0.27131
H          1.84193        3.27583        0.84141
Pd         0.01902       -1.15202       -0.44865
H         -3.23431        0.89080       -2.74340
H          0.74632        1.24228        3.12857
H         -2.82615       -0.82910       -2.71892
C         -4.44087       -0.28545        2.49242
C         -4.09324       -1.34224        1.67377
C         -3.24523       -1.13070        0.60257
C         -2.75853        0.13165        0.35467
C         -3.09378        1.18651        1.17169
C         -3.94115        0.97845        2.24498
H         -5.10059       -0.44825        3.32901
H         -4.47521       -2.33015        1.87205
H         -2.93302       -1.94571       -0.03077
H         -2.68807        2.16474        0.96994
H         -4.20857        1.80118        2.88753
C          5.47562        0.30121        0.42186
C          4.69487        0.65310       -0.66123
C          3.32034        0.73056       -0.52280
C          2.73852        0.46065        0.69498
C          3.51217        0.10418        1.77597
C          4.88654        0.02564        1.64006
H          6.54624        0.23757        0.31524
H          5.15330        0.86343       -1.61350
H          2.69531        0.99824       -1.36056
H          3.04136       -0.11840        2.71960
H          5.49579       -0.25505        2.48349
H          0.62213       -0.51734        2.96934
