111
-148.55616748
P         -2.57343        2.03819        0.82545
P          0.14273        0.44028        0.49057
C         -1.47983        1.81517        2.25317
C         -0.28384        1.14866        2.09461
C         -3.41199        3.68721        0.82568
C         -2.83449        4.58921       -0.24331
C         -1.84353        2.29101        3.49651
H         -2.78865        2.79423        3.61886
C         -1.00009        2.10503        4.57836
H         -1.28261        2.47678        5.54975
C          0.20062        1.44080        4.41577
H          0.85570        1.29362        5.25861
C          0.55779        0.95658        3.17018
H          1.48437        0.42234        3.02881
Pd        -1.31149        1.45959       -1.00604
Cl        -3.00356        1.94491       -2.38988
Cl         0.16187        0.88565       -2.60778
C         -4.89435        3.32083        0.62018
C         -4.04485        0.91721        0.84618
H         -2.95397        4.14250       -1.23184
H         -3.33300        5.56130       -0.25800
H         -1.76618        4.75723       -0.08679
H         -5.12715        3.38526       -0.45169
H         -5.54448        4.06270        1.10834
H         -4.12857        0.50719       -0.16935
C         -5.20851        1.88506        1.12949
C         -3.88365       -0.19286        1.86180
H         -3.25722        4.11869        1.82273
H         -5.39067        1.91171        2.21271
H         -6.13983        1.50464        0.68288
H         -3.73172        0.21607        2.86240
H         -4.76631       -0.83568        1.89525
H         -3.01966       -0.81811        1.62818
C         -1.22655       -3.89559        0.21877
C         -1.08522       -3.28759        1.49304
C         -0.64785       -1.97473        1.55001
C         -0.42620       -1.25608        0.40513
C         -0.66276       -1.80717       -0.82594
C         -1.10297       -3.11155       -0.95641
O         -1.45308       -5.29429        0.12161
C         -1.36941       -4.04195        2.80129
H         -0.46800       -1.49389        2.49520
H         -0.48561       -1.19502       -1.69302
C         -1.41409       -3.65016       -2.36107
C          4.54166        0.76740       -0.64047
C          3.82345       -0.42421       -0.91371
C          2.48786       -0.47821       -0.55515
C          1.88562        0.56024        0.10513
C          2.60010        1.67451        0.45943
C          3.94401        1.78979        0.14138
O          5.84064        0.95427       -1.18335
C          4.44724       -1.63195       -1.62998
H          1.88910       -1.33542       -0.80742
H          2.08726        2.46162        0.98484
C          4.72265        3.02506        0.62066
C         -1.81244       -3.06503        3.91435
C         -2.51150       -5.05727        2.61490
C         -0.09213       -4.76032        3.26165
C         -1.94170       -2.51598       -3.27076
C         -0.12954       -4.22020       -2.98168
C         -2.50909       -4.73088       -2.31342
C         -0.26293       -6.06638        0.02217
H         -2.65306       -2.45553        3.58461
H         -2.12540       -3.61028        4.80449
H         -1.00328       -2.40117        4.21507
H         -2.75741       -5.54786        3.55634
H         -3.40886       -4.56165        2.24585
H         -2.24060       -5.83176        1.90146
H          0.24269       -5.48221        2.52079
H          0.71613       -4.04632        3.41828
H         -0.25921       -5.29240        4.19783
H         -1.16827       -1.78281       -3.49412
H         -2.28858       -2.91389       -4.22398
H         -2.77702       -1.99816       -2.80007
H          0.63415       -3.44709       -3.06340
H          0.27852       -5.02507       -2.37469
H         -0.31929       -4.61310       -3.98016
H         -3.40883       -4.34378       -1.83628
H         -2.77381       -5.06520       -3.31621
H         -2.18333       -5.60250       -1.75163
H         -0.24794       -6.59825       -0.92887
H          0.61530       -5.42322        0.09238
H         -0.23932       -6.80347        0.82475
C          5.84591        1.57008       -2.46525
C          4.23240       -1.48554       -3.14414
C          5.94874       -1.75353       -1.31396
C          3.78099       -2.94699       -1.16242
C          6.20337        2.68565        0.87136
C          4.60584        4.13966       -0.42982
C          4.14861        3.54442        1.95872
H          3.16951       -1.42604       -3.37766
H          4.70420       -0.58213       -3.52332
H          4.65000       -2.33592       -3.68251
H          6.37479       -2.64545       -1.77271
H          6.50370       -0.89598       -1.68572
H          6.11049       -1.81482       -0.23831
H          2.74595       -3.01661       -1.49330
H          4.30431       -3.81181       -1.56961
H          3.79923       -3.02580       -0.07574
H          6.70351        2.38850       -0.04702
H          6.73947        3.54421        1.27506
H          6.29381        1.86450        1.58164
H          3.56204        4.40582       -0.59464
H          5.13659        5.03571       -0.10914
H          5.02168        3.82662       -1.38448
H          4.09950        2.74356        2.69613
H          3.14928        3.95905        1.83569
H          4.77529        4.33709        2.36686
H          6.30768        0.90137       -3.19142
H          4.82717        1.80040       -2.77989
H          6.43160        2.48844       -2.42723
