111
-148.55813772
P         -1.63422        2.81233       -0.01264
P         -0.57208       -0.11623        0.50172
C         -1.64560        2.12942        1.67089
C         -1.25150        0.82454        1.88091
C         -0.42654        4.20526       -0.15627
C          0.71254        3.83377       -1.08211
C         -2.02005        2.91383        2.74310
H         -2.29101        3.94395        2.57923
C         -2.02207        2.37977        4.02024
H         -2.31857        2.99082        4.85711
C         -1.63896        1.06789        4.22498
H         -1.63496        0.65464        5.22016
C         -1.24178        0.29024        3.15213
H         -0.90562       -0.72437        3.29724
Pd        -1.33551        0.97491       -1.38257
Cl        -1.96711        2.29189       -3.08570
Cl        -0.97554       -0.87712       -2.59977
C         -1.29258        5.37740       -0.66033
C         -3.20202        3.69069       -0.45992
H          0.33479        3.57777       -2.07404
H          1.41918        4.65886       -1.19787
H          1.26339        2.96753       -0.71053
H         -1.16421        5.46563       -1.74787
H         -0.92885        6.32890       -0.24396
H         -3.39254        3.44146       -1.51209
C         -2.80059        5.17164       -0.33792
C         -4.37645        3.26978        0.39792
H         -0.06227        4.39989        0.86093
H         -3.00998        5.51403        0.68481
H         -3.43106        5.79364       -0.99169
H         -4.54865        2.19309        0.33146
H         -4.20394        3.50885        1.44754
H         -5.29379        3.77900        0.09390
C         -0.81251       -4.64755        0.81025
C          0.27285       -3.95199        1.40202
C          0.30883       -2.57254        1.28341
C         -0.71237       -1.88834        0.67761
C         -1.81675       -2.54524        0.20316
C         -1.91501       -3.92476        0.28594
O         -0.77541       -6.06341        0.70444
C          1.42579       -4.66683        2.12361
H          1.15255       -2.00985        1.64535
H         -2.59385       -1.96282       -0.26125
C         -3.18360       -4.61448       -0.23944
C          3.69970        1.29445       -0.19276
C          3.10448        0.36898       -1.09104
C          1.80545       -0.03911       -0.84294
C          1.13829        0.36748        0.28129
C          1.75003        1.16326        1.21345
C          3.04715        1.61083        1.02877
O          4.89425        1.96748       -0.55684
C          3.80547       -0.20275       -2.33369
H          1.27415       -0.64653       -1.55617
H          1.19258        1.45506        2.08665
C          3.68966        2.42812        2.16137
C          2.53925       -4.98087        1.11259
C          2.01064       -3.76822        3.23742
C          0.94151       -5.96126        2.80162
C         -3.47519       -5.91221        0.53576
C         -4.41580       -3.69867       -0.06064
C         -3.01112       -4.91682       -1.73586
C         -0.16426       -6.53737       -0.48922
H          2.17928       -5.63052        0.31840
H          2.90832       -4.06578        0.64978
H          3.37950       -5.47635        1.59828
H          2.73854       -4.31690        3.83469
H          2.52410       -2.89950        2.82800
H          1.22433       -3.41883        3.90611
H          0.58540       -6.68328        2.07124
H          1.74590       -6.43288        3.36557
H          0.12308       -5.75090        3.48929
H         -4.40975       -6.36464        0.20501
H         -2.68656       -6.64649        0.39262
H         -3.55457       -5.71152        1.60364
H         -4.36628       -2.82457       -0.70809
H         -5.33288       -4.23076       -0.31259
H         -4.49910       -3.35829        0.97116
H         -2.16891       -5.58233       -1.90914
H         -3.90377       -5.38948       -2.14464
H         -2.82791       -3.99939       -2.29482
H         -0.87470       -7.14742       -1.04684
H          0.16054       -5.70005       -1.10826
H          0.69503       -7.15926       -0.23893
C          4.65222        3.16806       -1.27235
C          3.58573       -1.73128       -2.38500
C          3.20282        0.43508       -3.59691
C          5.32517        0.03381       -2.31061
C          3.05553        3.82862        2.20194
C          3.43627        1.72033        3.51107
C          5.21442        2.55533        2.00051
H          3.93619       -2.20094       -1.46633
H          2.53480       -1.98531       -2.51266
H          4.13020       -2.17432       -3.21843
H          3.66245        0.02676       -4.49649
H          2.13073        0.24909       -3.65417
H          3.35260        1.51295       -3.60363
H          5.81252       -0.46119       -3.15027
H          5.55999        1.09371       -2.37255
H          5.76008       -0.35145       -1.38904
H          3.48485        4.42746        3.00470
H          3.21325        4.36009        1.26544
H          1.98095        3.76431        2.37012
H          3.80668        0.69591        3.48315
H          3.94438        2.23966        4.32322
H          2.37679        1.68871        3.75980
H          5.65996        3.05377        2.86111
H          5.47178        3.13371        1.11655
H          5.67343        1.57230        1.90133
H          4.03369        2.96567       -2.14523
H          4.13636        3.88574       -0.63685
H          5.60330        3.59268       -1.59426
