111
-148.55511902
P         -2.49019        2.12454        0.92978
P          0.10605        0.35369        0.56072
C         -1.42675        1.78064        2.35662
C         -0.28349        1.03088        2.18456
C         -3.18464        3.83889        0.97363
C         -2.55264        4.70764       -0.09206
C         -1.76296        2.24497        3.61204
H         -2.66882        2.81358        3.74482
C         -0.94357        1.96368        4.69183
H         -1.20485        2.32567        5.67280
C          0.20602        1.21751        4.51485
H          0.84263        0.99731        5.35592
C          0.53568        0.74619        3.25663
H          1.42273        0.15186        3.10181
Pd        -1.30212        1.43602       -0.91786
Cl        -2.95459        2.14929       -2.25484
Cl         0.08552        0.90146       -2.60485
C         -4.69721        3.60506        0.79587
C         -4.05210        1.13414        0.94356
H         -2.73180        4.29290       -1.08538
H         -2.96357        5.71988       -0.07809
H         -1.47056        4.77788        0.04291
H         -4.94740        3.71533       -0.26828
H         -5.27047        4.38727        1.31628
H         -4.18880        0.76718       -0.08258
C         -5.12191        2.18897        1.28008
C         -3.96616       -0.01948        1.91935
H         -2.97218        4.23680        1.97409
H         -5.27475        2.20338        2.36807
H         -6.09283        1.90055        0.84916
H         -3.15708       -0.70245        1.65127
H         -3.76862        0.34138        2.93042
H         -4.89675       -0.59109        1.94614
C         -1.19379       -3.98800        0.12980
C         -1.18506       -3.39243        1.41795
C         -0.77178       -2.07524        1.53015
C         -0.45453       -1.34066        0.41832
C         -0.57334       -1.87776       -0.83596
C         -0.97379       -3.18860       -1.02067
O         -1.38324       -5.38922       -0.00361
C         -1.58091       -4.16438        2.68640
H         -0.68167       -1.60554        2.49355
H         -0.33695       -1.24714       -1.67579
C         -1.12644       -3.72206       -2.45310
C          4.44619        0.80627       -0.73258
C          3.81902       -0.46415       -0.79279
C          2.49931       -0.56083       -0.38762
C          1.83099        0.52135        0.12145
C          2.46135        1.72806        0.27384
C          3.78434        1.89320       -0.10458
O          5.71766        0.99887       -1.33539
C          4.52181       -1.71868       -1.33440
H          1.96473       -1.48907       -0.48499
H          1.89631        2.54810        0.68287
C          4.46484        3.25022        0.13442
C         -2.16545       -3.20751        3.75039
C         -2.66785       -5.21098        2.38075
C         -0.33725       -4.84864        3.27339
C         -1.57036       -2.59046       -3.40914
C          0.22549       -4.26968       -2.93577
C         -2.20347       -4.81918       -2.52710
C         -0.17568       -6.14011        0.02073
H         -2.55107       -3.76684        4.60248
H         -1.41283       -2.52039        4.13408
H         -2.98638       -2.62271        3.33696
H         -3.53602       -4.73943        1.92144
H         -2.30271       -5.97427        1.69804
H         -2.99583       -5.71277        3.29076
H         -0.58475       -5.39426        4.18361
H          0.09523       -5.55306        2.56694
H          0.42800       -4.11238        3.51824
H         -0.78782       -1.84571       -3.54575
H         -1.80786       -2.98792       -4.39551
H         -2.45847       -2.08693       -3.02823
H          0.57603       -5.07587       -2.29559
H          0.15069       -4.65430       -3.95254
H          0.98310       -3.48645       -2.92646
H         -3.15485       -4.44847       -2.14707
H         -2.35446       -5.15157       -3.55383
H         -1.92578       -5.68914       -1.93752
H         -0.05748       -6.67588       -0.92091
H          0.67984       -5.48084        0.17337
H         -0.21833       -6.87303        0.82629
C          5.65567        1.40171       -2.69793
C          6.03079       -1.68433       -1.03298
C          3.95727       -2.99342       -0.66494
C          4.28346       -1.81693       -2.84898
C          5.97442        3.07988        0.38426
C          4.22773        4.15812       -1.08196
C          3.87821        3.94047        1.38702
H          6.51747       -0.85245       -1.53577
H          6.20575       -1.57604        0.03689
H          6.51774       -2.60072       -1.36553
H          4.53995       -3.86957       -0.94859
H          3.98916       -2.90770        0.42090
H          2.92783       -3.18575       -0.96370
H          4.69078       -0.95344       -3.36917
H          4.75137       -2.71051       -3.26127
H          3.21690       -1.86163       -3.06831
H          6.47788        2.67034       -0.48777
H          6.44350        4.03574        0.61621
H          6.15101        2.40359        1.21997
H          3.16122        4.30698       -1.24921
H          4.68661        5.13555       -0.93540
H          4.64573        3.72296       -1.98643
H          2.84460        4.24644        1.23276
H          4.44355        4.83882        1.63402
H          3.91433        3.27474        2.24898
H          6.17043        0.66965       -3.31993
H          4.61751        1.48847       -3.02132
H          6.15614        2.36229       -2.81881
