111
-148.55646227
P         -2.46717        2.46077        0.47085
P         -0.12163        0.32795        0.47715
C         -1.78156        1.88790        2.04261
C         -0.80179        0.91994        2.04115
C         -2.53086        4.30482        0.36790
C         -1.51018        4.81380       -0.62677
C         -2.27081        2.37611        3.23705
H         -3.03555        3.13595        3.22741
C         -1.78330        1.87995        4.43385
H         -2.16481        2.25879        5.36794
C         -0.81754        0.89174        4.43150
H         -0.44473        0.49805        5.36275
C         -0.32768        0.40812        3.23148
H          0.41940       -0.37013        3.21391
Pd        -1.35819        1.34639       -1.21828
Cl        -2.93054        2.09253       -2.63210
Cl        -0.27460        0.01246       -2.66675
C         -3.99452        4.58437       -0.02294
C         -4.27135        2.06281        0.31771
H         -1.69691        4.39576       -1.61813
H         -1.54544        5.90237       -0.71421
H         -0.49590        4.52836       -0.33654
H         -4.05352        4.68474       -1.11548
H         -4.32058        5.55512        0.38031
H         -4.40632        1.66220       -0.69558
C         -4.94308        3.44284        0.44019
C         -4.71851        1.05101        1.35193
H         -2.31985        4.68170        1.37716
H         -5.22885        3.60621        1.48831
H         -5.88549        3.46082       -0.12802
H         -4.13020        0.13325        1.28918
H         -4.59661        1.44565        2.36162
H         -5.77176        0.78963        1.22633
C         -0.88678       -4.11202       -0.14718
C          0.37722       -3.67350        0.32460
C          0.57556       -2.31408        0.49522
C         -0.44189       -1.41992        0.29016
C         -1.69677       -1.84643       -0.05543
C         -1.96106       -3.19138       -0.25517
O         -1.06692       -5.46336       -0.54557
C          1.54090       -4.63460        0.61442
H          1.54100       -1.93023        0.77617
H         -2.46648       -1.10709       -0.19285
C         -3.38453       -3.62187       -0.64144
C          4.40548        0.82016        0.19306
C          3.74418        1.19787        1.38942
C          2.36706        1.06485        1.44951
C          1.64532        0.64169        0.36281
C          2.27458        0.38655       -0.82723
C          3.64615        0.50670       -0.96219
O          5.82142        0.71248        0.16704
C          4.50421        1.68998        2.63077
H          1.84051        1.27448        2.36225
H          1.66818        0.07523       -1.65834
C          4.28140        0.25652       -2.33863
C          2.44919       -4.06936        1.73108
C          1.02520       -5.99958        1.10463
C          2.38483       -4.80906       -0.65742
C         -3.70928       -5.02228       -0.09125
C         -4.43133       -2.65080       -0.04955
C         -3.51857       -3.60622       -2.17194
C         -0.75080       -5.71228       -1.90968
H          1.86370       -3.80979        2.61272
H          3.19677       -4.80372        2.03018
H          2.98828       -3.18156        1.40331
H          1.85159       -6.65899        1.36872
H          0.39418       -5.87745        1.98434
H          0.43669       -6.50020        0.34009
H          3.22542       -5.47931       -0.47961
H          1.79296       -5.22051       -1.47132
H          2.78216       -3.85020       -0.98926
H         -4.73882       -5.30163       -0.31369
H         -3.06215       -5.77977       -0.52622
H         -3.57609       -5.04993        0.98970
H         -5.44161       -3.02696       -0.20901
H         -4.28517       -2.52968        1.02346
H         -4.37978       -1.66955       -0.51910
H         -2.81878       -4.29627       -2.63657
H         -4.52494       -3.88933       -2.47917
H         -3.31193       -2.61115       -2.56555
H         -0.43927       -4.79008       -2.40195
H          0.05141       -6.44732       -1.97215
H         -1.62437       -6.11944       -2.41854
C          6.30677       -0.58540        0.48813
C          4.88322        0.48402        3.50387
C          5.76773        2.47395        2.23202
C          3.62473        2.64690        3.46741
C          5.58010        1.06507       -2.50984
C          4.56383       -1.24486       -2.50057
C          3.32313        0.70347       -3.46678
H          5.52575       -0.20706        2.96362
H          5.41188        0.80271        4.40187
H          3.99277       -0.06352        3.81218
H          5.51250        3.30471        1.57503
H          6.27188        2.87762        3.10972
H          6.47852        1.84011        1.70751
H          4.20263        3.09680        4.27441
H          3.23117        3.45264        2.84830
H          2.78626        2.12627        3.92774
H          5.99271        0.93679       -3.51022
H          5.39378        2.12704       -2.35335
H          6.34009        0.75242       -1.79849
H          5.01311       -1.45538       -3.47072
H          5.24182       -1.60451       -1.73002
H          3.64110       -1.81956       -2.42449
H          2.99722        1.73180       -3.31329
H          2.43931        0.07005       -3.52224
H          3.81572        0.64950       -4.43727
H          5.47882       -1.25166        0.73415
H          6.85945       -0.99131       -0.35889
H          6.98594       -0.52050        1.33810
