59
-75.79888782
Cl         1.35672        0.47316        2.43380
P          1.49116       -0.08168       -0.73154
P         -1.71794       -0.18652       -0.85133
C          0.56389        0.37488       -2.26559
H          0.32805        1.44029       -2.22021
H          1.22504        0.22526       -3.12476
C         -0.69076       -0.44702       -2.36463
H         -0.44931       -1.50943       -2.44071
H         -1.29031       -0.18836       -3.24281
C          2.39109       -1.66642       -1.07285
H          1.84233       -2.13226       -1.90215
C          2.97047        0.99947       -0.50271
H          3.28295        0.89046        0.54258
C         -2.93175       -1.54564       -0.51554
H         -2.94693       -1.66757        0.57473
C         -2.89739        1.22635       -1.10533
H         -2.80909        1.50655       -2.16195
C          3.79241       -1.20698       -1.54425
H          4.55702       -1.72203       -0.94856
H          3.97540       -1.54371       -2.57565
C          3.99449        0.33666       -1.44083
H          3.88989        0.78980       -2.43720
H          5.01999        0.57584       -1.11971
C         -4.26049       -0.94336       -1.00054
H         -4.39800       -1.19593       -2.06119
H         -5.10726       -1.40907       -0.47319
C         -4.27657        0.59813       -0.82600
H         -4.57108        0.84153        0.20414
H         -5.04426        1.05786       -1.46665
C          2.41009       -2.60352        0.13540
H          2.83977       -3.56840       -0.16849
H          1.37681       -2.82724        0.43047
C          2.67226        2.46213       -0.80517
H          2.34218        2.55199       -1.84814
H          1.81526        2.78479       -0.19866
C         -2.56826       -2.86797       -1.17982
H         -3.41686       -3.56033       -1.08934
H         -2.44675       -2.70301       -2.25816
C         -2.59987        2.43152       -0.21752
H         -3.44602        3.13048       -0.27426
H         -2.57132        2.10039        0.82849
C          3.16789       -2.06839        1.34116
H          2.76287       -1.11221        1.66812
H          4.22499       -1.90975        1.12453
H          3.11289       -2.75041        2.19282
C          3.86204        3.37518       -0.54981
H          4.19108        3.31051        0.48905
H          3.62714        4.42198       -0.75576
H          4.71392        3.10165       -1.17491
C         -1.31829       -3.49935       -0.59004
H         -0.46337       -2.82983       -0.67924
H         -1.05618       -4.43702       -1.08537
H         -1.44679       -3.71195        0.47304
C         -1.31241        3.15413       -0.57697
H         -0.44760        2.50327       -0.45493
H         -1.32246        3.48917       -1.61584
H         -1.14637        4.03236        0.05114
Cl        -1.89639        0.18268        2.31403
Pd        -0.19111        0.09210        0.85780
