105
-153.06550177
Cl        -0.00879        3.16956        2.50759
Pd        -0.30385        1.91153        0.66688
P         -0.71806        0.49152       -1.18791
N          0.45941       -0.76841       -1.54117
C          0.57738       -2.14456       -1.28726
C          0.03313       -2.79516       -0.14722
C          0.38530       -4.13537        0.11879
C          0.03167       -4.75463        1.45059
C         -0.05624       -6.28557        1.39242
C          1.23452       -6.86520        0.80459
C          1.49889       -6.31553       -0.60853
C          1.16111       -4.85396       -0.79539
C          1.64639       -4.20816       -1.92542
C          1.38797       -2.88103       -2.14956
H          1.80454       -2.38522       -3.00937
H          2.25359       -4.76182       -2.62160
H          2.55091       -6.46933       -0.88057
H          2.07638       -6.60722        1.45947
H         -0.26458       -6.70853        2.38536
H          0.79974       -4.46013        2.17596
C         -0.73630       -2.03160        0.86409
C         -0.05937       -1.03171        1.60044
C         -0.73647       -0.36118        2.61570
C         -2.04667       -0.65574        2.89245
C         -2.73607       -1.63022        2.17813
C         -4.16812       -1.91538        2.57049
C         -4.90380       -2.94271        1.68892
C         -3.95154       -4.02311        1.16529
C         -2.81390       -3.37531        0.36558
C         -2.07988       -2.32394        1.15809
H         -2.11773       -4.13491       -0.00753
H         -4.48882       -4.76596        0.55887
H         -5.36433       -2.42927        0.83635
H         -4.71912       -0.96638        2.58077
H         -2.56010       -0.12422        3.67566
H         -0.21850        0.40584        3.16396
N          1.25230       -0.71179        1.26586
P          1.79322        0.96171        1.20853
C          2.60700        1.23924       -0.36975
C          2.29678        2.35595       -1.10997
C          2.78172        2.48417       -2.39749
C          3.57238        1.49069       -2.95688
C          3.90599        0.38852       -2.18256
C          3.42769        0.26528       -0.89063
H          3.66344       -0.60719       -0.30247
H          4.53567       -0.37801       -2.60143
C          4.08277        1.62153       -4.34945
H          2.52857        3.35013       -2.98515
H          1.66285        3.11990       -0.68891
C          2.95044        1.24646        2.54755
C          3.94660        0.31944        2.74370
C          4.87589        0.50988        3.75158
C          4.80827        1.62748        4.57271
C          3.79703        2.55356        4.35612
C          2.86999        2.35876        3.34999
H          2.06741        3.05975        3.19913
H          3.73809        3.42657        4.98349
C          5.82215        1.84824        5.64101
H          5.66132       -0.21030        3.90496
H          3.99029       -0.55280        2.11062
H          1.63442       -1.18161        0.45257
H          1.30396       -0.26349       -1.78455
C         -0.58006        1.62998       -2.57383
C         -1.04400        2.92134       -2.50155
C         -0.89591        3.77139       -3.58032
C         -0.28204        3.33307       -4.74573
C          0.15572        2.01773       -4.81388
C          0.00715        1.17146       -3.72976
H          0.35420        0.15225       -3.77903
H          0.61770        1.66137       -5.71868
C         -0.13450        4.24210       -5.91573
H         -1.25824        4.78362       -3.52350
H         -1.52772        3.25729       -1.60072
C         -2.34911       -0.23360       -1.34572
C         -3.43331        0.18175       -0.61094
C         -4.67842       -0.36999       -0.84379
C         -4.85284       -1.32978       -1.83215
C         -3.75106       -1.72732       -2.57688
C         -2.50335       -1.17994       -2.33170
H         -1.64270       -1.48619       -2.90565
H         -3.87413       -2.47328       -3.34331
C         -6.18635       -1.94507       -2.07792
H         -5.52662       -0.04713       -0.26470
H         -3.30968        0.96081        0.12037
Cl        -2.32236        2.86282        0.39482
H          0.92278       -6.89523       -1.33974
H         -0.90597       -6.57603        0.76192
H          1.19703       -7.96368        0.79541
H         -0.90037       -4.33170        1.83994
H         -3.53021       -4.57872        2.01229
H         -3.22592       -2.90536       -0.53131
H         -4.17049       -2.26221        3.61089
H         -5.74011       -3.39775        2.23789
H          4.12840        0.64975       -4.84314
H          3.43605        2.26540       -4.94732
H          5.08526        2.05139       -4.35627
H          5.38906        2.37770        6.49081
H          6.21939        0.90135        6.00932
H          6.65765        2.44056        5.26548
H          0.76457        4.00531       -6.48651
H         -0.99147        4.15430       -6.58488
H         -0.05997        5.28328       -5.59880
H         -6.97528       -1.41002       -1.54763
H         -6.43189       -1.93063       -3.14071
H         -6.20188       -2.98317       -1.74272
