72
-108.39075445
Cl        -2.09179       -0.09598        2.77173
Cl         0.96240       -0.94876        2.77119
P          1.20575       -1.01317       -0.27110
P         -2.24733        0.13832       -0.37614
C         -3.51411       -1.27470       -0.30800
C         -4.31714       -1.21509        0.98885
C         -4.47082       -1.20326       -1.50584
C         -3.08720        1.83128       -0.11349
C         -4.45190        1.86768       -0.79415
C         -1.42111        0.28831       -2.06136
C         -1.29569       -1.00533       -2.84735
C          1.15735        0.29744       -1.52394
C         -0.05867        0.96718       -1.98670
C          0.37587        2.09621       -2.81183
C          1.82541        2.08565       -2.88204
C          2.30899        0.94967       -2.12000
C         -2.74021       -2.58727       -0.32744
H         -5.03351       -2.03691        1.03286
H         -3.66722       -1.30524        1.85747
H         -5.29327       -0.51283       -1.32587
H         -4.92055       -2.17866       -1.69892
C         -3.23720        2.11144        1.37644
H         -4.37918        1.55776       -1.83699
H         -4.85870        2.88015       -0.77997
H         -2.09799        0.95253       -2.61159
H         -0.66777       -1.71610       -2.31658
H         -0.81933       -0.82573       -3.81332
H         -2.25127       -1.48669       -3.04636
H         -0.28294        2.75418       -3.38171
H          2.44388        2.77870       -3.45722
Pd        -0.53290       -0.36773        1.18564
H          3.35024        0.67248       -1.94336
C         -2.21045        2.91003       -0.74300
H         -5.17320        1.23184       -0.28522
H         -2.26844        2.11118        1.87404
H         -3.69730        3.08626        1.54537
H         -3.85970        1.36408        1.86538
H         -2.54999        3.90688       -0.45630
H         -1.17958        2.80208       -0.42263
H         -2.23283        2.86308       -1.83149
H         -4.88203       -0.29003        1.07774
H         -3.96969       -0.87937       -2.41521
H         -2.01215       -2.62996        0.48350
H         -3.41393       -3.43767       -0.20838
H         -2.20456       -2.72974       -1.26281
C          2.88926       -1.08717        0.38601
C          3.32381       -2.08419        1.22246
C          4.66123       -1.81649        1.51668
C          4.98837       -0.66637        0.84098
O          3.91005       -0.20926        0.13922
H          2.72807       -2.90692        1.58542
H          5.30896       -2.39733        2.15279
H          5.95567       -0.17949        0.85332
C          0.87940       -2.64331       -0.95500
C          1.70696       -3.23145       -1.87856
C          1.15532       -4.47721       -2.18323
C          0.01246       -4.59430       -1.43001
O         -0.17020       -3.47170       -0.67276
H          2.61114       -2.80191       -2.28074
H          1.55082       -5.20559       -2.87216
H         -0.65733       -5.44529       -1.42599
Fe         1.22914        2.22063       -0.94685
C          2.90667        2.58031        0.22699
C          1.84882        1.97246        1.00622
C          0.69944        2.85064        0.96670
C          1.03109        3.99507        0.13883
C          2.39027        3.81422       -0.33623
H          3.90600        2.16566        0.08017
H          1.91917        1.04546        1.57953
H         -0.21145        2.71933        1.55223
H          0.38614        4.85215       -0.06608
H          2.94731        4.51272       -0.96465
