75
-122.81767073
P          1.85810       -0.54963       -0.00866
C          3.19123       -1.25965       -0.98616
C          4.45017       -1.31077       -0.43201
C          5.49399       -1.87253       -1.14511
C          5.26620       -2.38789       -2.40554
C          3.99853       -2.34754       -2.95120
C          2.95733       -1.78533       -2.23587
H          1.96352       -1.74928       -2.65164
H          3.81968       -2.75205       -3.93387
H          6.07836       -2.82531       -2.96298
H          6.48155       -1.90999       -0.71549
H          4.60822       -0.91987        0.56114
C          1.70028       -1.57371        1.45693
C          1.82979       -1.02577        2.71237
C          1.79189       -1.84392        3.82632
C          1.62628       -3.20627        3.67303
C          1.49467       -3.75124        2.41100
C          1.53465       -2.93032        1.29816
H          1.44962       -3.34122        0.30428
H          1.36122       -4.81383        2.29186
H          1.59261       -3.84480        4.54061
H          1.88839       -1.41768        4.81127
H          1.95643        0.03951        2.81498
C          2.22448        1.15488        0.43844
C          3.37935        1.81126        0.08237
C          3.54515        3.15759        0.37628
C          2.50345        3.83872        1.00497
C          1.33407        3.19737        1.34862
C          1.19296        1.82713        1.07673
O          0.01090        1.13884        1.39601
C         -1.18606        1.80593        1.08639
C         -1.34664        3.17474        1.35434
C         -2.52737        3.79673        1.01429
C         -3.56260        3.09629        0.39637
C         -3.37992        1.75012        0.11221
C         -2.21343        1.11228        0.46429
P         -1.82832       -0.59403        0.03510
C         -1.71425       -1.59783        1.52345
C         -1.50377       -1.01656        2.75263
C         -1.50546       -1.79639        3.89400
C         -1.71260       -3.15790        3.79567
C         -1.91386       -3.74011        2.55993
C         -1.91680       -2.95533        1.42068
H         -2.09060       -3.39312        0.45037
H         -2.07204       -4.80316        2.48217
H         -1.70923       -3.76815        4.68401
H         -1.33675       -1.34248        4.85663
H         -1.32334        0.04357        2.81198
C         -3.13662       -1.31224       -0.97153
C         -4.41122       -1.35620       -0.45364
C         -5.43489       -1.92420       -1.19049
C         -5.17169       -2.45353       -2.43810
C         -3.88855       -2.42167       -2.94674
C         -2.86750       -1.85335       -2.20763
H         -1.86180       -1.82628       -2.59441
H         -3.68190       -2.83763       -3.91915
H         -5.96822       -2.89533       -3.01433
H         -6.43454       -1.95548       -0.78926
H         -4.59738       -0.95678        0.53119
Pd        -0.00683       -0.03895       -1.36812
Cl        -1.56179        0.91315       -2.70627
Cl         1.53150        0.89680       -2.73845
H         -4.14512        1.20802       -0.41428
C         -4.81223        3.79120       -0.01196
H         -5.66909        3.11784        0.03522
H         -4.73099        4.16168       -1.03459
H         -5.02173        4.64078        0.63921
H         -2.64238        4.84669        1.21799
S         -0.01186        4.06307        2.11387
H          2.60379        4.88926        1.21339
C          4.78216        3.87353       -0.03410
H          4.14819        1.28276       -0.45290
H          5.64831        3.21130       -0.00081
H          4.68803        4.25398       -1.05194
H          4.98536        4.71876        0.62470
