59
-75.80079908
Cl         1.70844        0.52267        2.29124
P          1.62831       -0.15061       -0.86188
P         -1.57240       -0.14348       -0.76579
C          0.60288        0.11867       -2.37751
H          0.36746        1.18283       -2.45501
H          1.19767       -0.14787       -3.25696
C         -0.65479       -0.69611       -2.26738
H         -0.42237       -1.75911       -2.16544
H         -1.30621       -0.57976       -3.13906
C          2.69036       -1.64461       -1.16278
H          2.50641       -1.89465       -2.21642
C          2.95570        1.12546       -0.65991
H          3.07280        1.27024        0.42085
C         -3.06418       -1.16181       -0.36011
H         -3.09579       -1.20337        0.73625
C         -2.41958        1.45695       -1.12933
H         -1.85645        1.96676       -1.92064
C          4.12801       -1.11354       -1.01052
H          4.50044       -1.34798       -0.00618
H          4.80473       -1.63991       -1.70046
C          4.19771        0.42188       -1.23287
H          4.26133        0.63662       -2.30866
H          5.11419        0.84351       -0.79223
C         -4.24989       -0.32930       -0.90436
H         -4.84689       -0.95259       -1.58486
H         -4.93131       -0.07257       -0.08016
C         -3.79413        0.97073       -1.63071
H         -4.54455        1.76487       -1.50781
H         -3.74016        0.78281       -2.71399
C          2.33449       -2.84351       -0.28360
H          2.92428       -3.71134       -0.61022
H          1.28958       -3.11886       -0.47731
C          2.61878        2.45571       -1.32269
H          3.51009        3.09840       -1.30827
H          2.40927        2.28151       -2.38585
C         -2.96680       -2.57507       -0.91909
H         -3.94418       -3.06960       -0.82905
H         -2.77035       -2.51694       -1.99762
C         -2.47701        2.32246        0.12526
H         -3.07754        1.80226        0.88367
H         -1.47108        2.39329        0.56113
C          2.53480       -2.63093        1.20989
H          3.58588       -2.49294        1.46625
H          2.17409       -3.48115        1.79361
H          2.00233       -1.74912        1.56277
C          1.45257        3.17111       -0.65734
H          0.54809        2.56280       -0.67984
H          1.22038        4.12103       -1.14408
H          1.66665        3.38205        0.39211
C         -1.90032       -3.40534       -0.22066
H         -1.79468       -4.39851       -0.66293
H         -2.13468       -3.53862        0.83727
H         -0.92708       -2.91655       -0.26685
C         -3.02778        3.71887       -0.12573
H         -2.43135        4.24816       -0.87133
H         -4.05301        3.68641       -0.49736
H         -3.03060        4.32546        0.78277
Cl        -1.51796       -0.04766        2.43567
Pd         0.06809        0.00170        0.85069
