171
-217.83496398
P         -1.51682        0.43787       -0.16692
P          1.65840       -0.44876       -0.35535
C         -0.67424        1.47007       -1.38193
C          0.95905       -1.23975       -1.81152
C         -0.00618        0.94727       -2.48232
C          0.63490        1.83189       -3.37092
C          0.57642        3.19530       -3.13433
C         -0.07829        3.69478       -2.02982
C         -0.69338        2.82529       -1.15106
C          1.21202       -2.57201       -2.02673
C          0.62752       -3.22399       -3.09522
C         -0.23930       -2.54098       -3.92276
C         -0.50723       -1.19657       -3.72406
C          0.13138       -0.52077       -2.66631
Cl         1.76688       -0.02667        2.91162
Cl        -1.36432       -0.80884        2.99194
C         -1.46495       -0.50154       -4.62606
C          1.36827        1.32254       -4.56249
H         -0.11471        4.75723       -1.85390
H         -1.19264        3.20734       -0.27409
H          1.87016       -3.10360       -1.35859
H          0.83828       -4.26591       -3.27301
H          1.06377        3.86785       -3.81990
H         -0.71940       -3.05299       -4.73964
C         -3.87230       -3.13423       -1.66505
C         -2.76700       -3.36262       -0.85302
C         -2.01376       -2.26552       -0.45381
C         -2.36778       -0.99556       -0.83960
C         -3.46653       -0.79086       -1.63793
C         -4.24873       -1.85675       -2.06256
H         -4.46661       -3.97024       -1.97920
H         -1.15561       -2.40022        0.18069
H         -3.74063        0.21371       -1.90723
C         -4.77078        3.09281        1.59158
C         -4.00875        2.32081        2.45929
C         -3.02566        1.51183        1.91112
C         -2.80125        1.48327        0.55929
C         -3.56599        2.25485       -0.28290
C         -4.57074        3.07398        0.21712
H         -5.54147        3.72667        1.98816
H         -2.43746        0.87804        2.54851
H         -3.35667        2.23066       -1.33831
C          4.27481       -3.25902        2.06670
C          4.86028       -2.16330        1.44504
C          4.04557       -1.33843        0.67945
C          2.70851       -1.61505        0.53441
C          2.15040       -2.71054        1.14682
C          2.92245       -3.55091        1.93762
H          4.89113       -3.88486        2.68415
H          4.44283       -0.45531        0.21184
H          1.09434       -2.89112        1.03969
C          4.03293        3.34912       -0.98758
C          3.03358        3.32356       -0.02321
C          2.31445        2.14604        0.13193
C          2.56894        1.06151       -0.67000
C          3.55315        1.10583       -1.62699
C          4.31717        2.25468       -1.79697
H          4.61571        4.24467       -1.09133
H          1.55878        2.05922        0.89306
H          3.73962        0.23071       -2.22665
Pd         0.10692       -0.25092        1.39741
C         -2.21415       -4.75045        1.16754
C         -2.38053       -4.76692       -0.36497
C         -1.05816       -5.18128       -1.02777
C         -3.45572       -5.81272       -0.71931
H         -1.96380       -5.74207        1.54403
H         -1.42264       -4.07026        1.47680
H         -3.13629       -4.42852        1.65072
H         -1.16824       -5.21669       -2.11124
H         -0.26798       -4.46963       -0.79491
H         -0.73951       -6.16664       -0.68824
H         -4.42102       -5.54124       -0.29225
H         -3.56918       -5.91199       -1.79859
H         -3.18409       -6.79317       -0.32816
C         -6.46316       -0.69160       -1.99848
C         -5.53526       -1.57523       -2.85459
C         -6.28552       -2.87407       -3.20660
C         -5.19324       -0.84234       -4.16393
H         -7.39766       -0.48517       -2.51983
H         -6.70294       -1.18472       -1.05669
H         -5.99447        0.26331       -1.76409
H         -6.58156       -3.41290       -2.30672
H         -7.19133       -2.65570       -3.77215
H         -5.66625       -3.53156       -3.81658
H         -4.57232       -1.46843       -4.80339
H         -6.09833       -0.59492       -4.71846
H         -4.65700        0.08630       -3.97189
C         -2.90211        2.74477        4.66834
C         -4.21403        2.32116        3.98071
C         -4.60233        0.90299        4.43894
C         -5.32730        3.29713        4.40635
H         -2.59373        3.73473        4.33284
H         -3.02165        2.77649        5.75106
H         -2.09432        2.04913        4.44380
H         -4.77265        0.87333        5.51491
H         -5.51506        0.57441        3.94243
H         -3.81804        0.18362        4.20625
H         -5.45446        3.28998        5.48885
H         -5.08836        4.31804        4.10893
H         -6.28281        3.02095        3.96086
C         -6.92048        3.55551       -0.51692
C         -5.44193        3.94573       -0.69838
C         -5.06920        3.76147       -2.18315
C         -5.24410        5.42650       -0.32651
H         -7.07237        2.50235       -0.75240
H         -7.25136        3.71999        0.50781
H         -7.56238        4.14378       -1.17245
H         -4.03403        4.04880       -2.36699
H         -5.20179        2.72597       -2.49605
H         -5.70044        4.38111       -2.81992
H         -5.83715        6.07371       -0.97244
H         -5.54240        5.61945        0.70332
H         -4.19751        5.71234       -0.43084
C          6.81610       -0.65903        0.82721
C          6.34820       -1.86037        1.67093
C          7.19080       -3.08695        1.27377
C          6.57243       -1.53257        3.15802
H          6.66156       -0.84915       -0.23434
H          6.27802        0.24864        1.10015
H          7.87853       -0.46883        0.97878
H          7.01634       -3.35184        0.23108
H          8.25469       -2.88481        1.39693
H          6.94575       -3.95421        1.88545
H          5.96765       -0.67676        3.45748
H          6.29720       -2.37386        3.79311
H          7.61778       -1.29354        3.35260
C          3.25791       -5.51594        3.52359
C          2.24787       -4.70972        2.68498
C          1.59136       -5.65927        1.66813
C          1.17474       -4.13575        3.63033
H          4.03596       -5.94624        2.89328
H          3.73065       -4.88811        4.27860
H          2.76170       -6.33643        4.04184
H          2.33282       -6.05566        0.97471
H          1.11206       -6.49983        2.16967
H          0.83182       -5.14242        1.08590
H          1.62278       -3.44805        4.34712
H          0.41262       -3.58619        3.07971
H          0.67757       -4.92989        4.18676
C          2.59287        5.79992        0.00801
C          2.79449        4.54395        0.87664
C          4.01718        4.73602        1.79082
C          1.54255        4.36062        1.75847
H          2.38148        6.67148        0.62732
H          3.47918        6.02325       -0.58417
H          1.75752        5.66387       -0.67750
H          3.87956        5.59010        2.45365
H          4.17858        3.85165        2.40706
H          4.92132        4.90589        1.20699
H          1.66199        3.52234        2.44443
H          1.35878        5.25080        2.35975
H          0.65709        4.18420        1.14858
C          4.90461        2.01224       -4.22764
C          5.46546        2.26428       -2.81811
C          6.47208        1.15668       -2.45763
C          6.21142        3.61297       -2.82770
H          5.70319        2.00345       -4.96931
H          4.38943        1.05415       -4.28235
H          4.20008        2.79607       -4.50341
H          7.30618        1.14348       -3.15898
H          6.87535        1.31666       -1.45807
H          6.00322        0.17364       -2.47965
H          5.54138        4.43025       -3.09406
H          6.64939        3.82643       -1.85279
H          7.02169        3.60090       -3.55664
H         -2.37743       -1.08710       -4.73655
H          1.88383        0.38763       -4.33787
H         -1.03805       -0.36292       -5.62021
H         -1.74579        0.47738       -4.23477
H          2.11344        2.04129       -4.90326
H          0.68557        1.14250       -5.39319
