111
-148.55578745
P         -1.72585        2.73673        0.20886
P         -0.51308       -0.17879        0.47779
C         -1.46968        2.01153        1.85191
C         -1.01148        0.71572        1.96593
C         -0.60188        4.18021       -0.05700
C          0.41385        3.87435       -1.13675
C         -1.70790        2.76013        2.98669
H         -2.03010        3.78409        2.89005
C         -1.51024        2.19930        4.23659
H         -1.69968        2.78229        5.12308
C         -1.06569        0.89600        4.34885
H         -0.90717        0.46065        5.32176
C         -0.80645        0.15553        3.20975
H         -0.42988       -0.85207        3.28194
Pd        -1.58771        0.94493       -1.23846
Cl        -2.45701        2.27586       -2.82128
Cl        -1.35910       -0.86885       -2.54227
C         -1.57089        5.32733       -0.40724
C         -3.37148        3.56352        0.01392
H         -0.08474        3.62499       -2.07560
H          1.06789        4.72928       -1.32362
H          1.03982        3.02230       -0.86459
H         -1.59890        5.44136       -1.49959
H         -1.18700        6.28406       -0.02209
H         -3.70206        3.32880       -1.00652
C         -3.01043        5.05626        0.11650
C         -4.39391        3.07883        1.01989
H         -0.11041        4.36648        0.90700
H         -3.08678        5.36953        1.16676
H         -3.74813        5.66615       -0.42719
H         -4.53547        1.99789        0.95009
H         -4.07992        3.30196        2.03986
H         -5.36310        3.55818        0.86451
C         -0.46705       -4.69088        1.08694
C         -1.47059       -4.10750        0.27140
C         -1.48268       -2.72965        0.12938
C         -0.50390       -1.95394        0.69218
C          0.53292       -2.52308        1.38511
C          0.59943       -3.89353        1.57469
O         -0.54447       -6.06494        1.43846
C         -2.53773       -4.94361       -0.45301
H         -2.25280       -2.24035       -0.44097
H          1.29799       -1.87435        1.77663
C          1.80477       -4.48888        2.31920
C          3.56149        1.41435       -0.78654
C          2.83579        0.55971       -1.65523
C          1.60420        0.09050       -1.23329
C          1.12412        0.38428        0.01476
C          1.86092        1.13294        0.89333
C          3.10300        1.63092        0.53845
O          4.72451        2.08201       -1.25496
C          3.32960        0.18455       -3.06038
H          0.97084       -0.47622       -1.89350
H          1.44119        1.34211        1.86137
C          3.90450        2.43215        1.57546
C         -3.76650       -5.10051        0.45505
C         -2.97613       -4.24874       -1.76281
C         -1.98651       -6.32694       -0.84415
C          3.06274       -3.61470        2.11027
C          1.49437       -4.54878        3.82248
C          2.14253       -5.89468        1.79043
C         -1.28843       -6.31978        2.62317
H         -3.50871       -5.60364        1.38389
H         -4.18360       -4.12670        0.71047
H         -4.54468       -5.68233       -0.03828
H         -3.62832       -4.89793       -2.34644
H         -3.53007       -3.33186       -1.56782
H         -2.11170       -4.00123       -2.37837
H         -1.08808       -6.22365       -1.45173
H         -1.72943       -6.91454        0.03363
H         -2.72017       -6.89386       -1.41667
H          3.94500       -4.10091        2.52600
H          3.24397       -3.44289        1.04951
H          2.96919       -2.64829        2.60358
H          0.62620       -5.17258        4.02102
H          2.33710       -4.95769        4.37932
H          1.28305       -3.55321        4.21219
H          3.03612       -6.29057        2.27236
H          1.33131       -6.59404        1.97705
H          2.31998       -5.86780        0.71583
H         -1.65939       -5.38626        3.04816
H         -2.12889       -6.97455        2.39372
H         -0.65359       -6.82410        3.35150
C          4.47079        3.35214       -1.84323
C          4.86564        0.09750       -3.10572
C          2.78760       -1.20263       -3.47569
C          2.82392        1.22799       -4.06857
C          3.59364        1.93526        3.00618
C          5.41915        2.26027        1.36154
C          3.51747        3.91581        1.47814
H          5.32483        1.06055       -2.89805
H          5.23127       -0.61298       -2.36511
H          5.21085       -0.22720       -4.08698
H          3.23856       -1.52956       -4.41229
H          3.01356       -1.95045       -2.71602
H          1.70978       -1.18525       -3.63002
H          3.19813        2.22079       -3.83094
H          3.14402        0.98074       -5.08034
H          1.73503        1.27423       -4.06061
H          2.57291        2.17172        3.30324
H          3.73203        0.85686        3.08043
H          4.25467        2.40833        3.73202
H          5.98549        2.77654        2.13627
H          5.69261        1.20595        1.38691
H          5.73333        2.66258        0.40189
H          2.45243        4.04877        1.66682
H          3.72990        4.31544        0.48948
H          4.06611        4.51119        2.20745
H          3.40263        3.57011       -1.83462
H          5.00346        4.12538       -1.29001
H          4.83390        3.35859       -2.87084
