45
-71.81791017
C          0.36882        0.46110        2.45792
P          0.97960        0.56847        0.74096
P         -1.59933        0.37004       -1.02525
C         -2.40830        0.12989       -2.64245
Cl         1.52505       -2.56333        0.49458
H          0.67391        1.33932        3.01947
H         -2.81599       -0.87506       -2.70396
Cl        -1.14989       -2.72252       -1.57545
C          0.36244        2.04442       -0.08898
C         -0.75959        1.96054       -0.88326
C         -1.25188        3.08727       -1.50951
C         -0.60504        4.29992       -1.34720
C          0.52516        4.38185       -0.55647
C          1.01043        3.25106        0.07651
H         -2.14063        3.01415       -2.11479
H         -0.98538        5.18148       -1.83649
H          1.02848        5.32630       -0.43060
H          1.89068        3.29837        0.69720
Pd         0.01496       -1.18905       -0.42636
H         -1.68490        0.26641       -3.44118
H          0.77144       -0.42693        2.93685
H         -3.21595        0.84560       -2.76623
C         -4.42007       -0.24146        2.48379
C         -4.08942       -1.30579        1.66780
C         -3.24029       -1.10992        0.59443
C         -2.73568        0.14460        0.34233
C         -3.05381        1.20684        1.15649
C         -3.90234        1.01431        2.23173
H         -5.08072       -0.39208        3.32192
H         -4.48561       -2.28737        1.86959
H         -2.94150       -1.93111       -0.03768
H         -2.63418        2.17834        0.95091
H         -4.15687        1.84279        2.87212
C          5.51489        0.40350        0.40956
C          4.72514        0.05242       -0.66727
C          3.34697        0.10307       -0.55655
C          2.76972        0.49711        0.62908
C          3.55291        0.85337        1.70372
C          4.93119        0.80560        1.59465
H          6.58862        0.36365        0.32493
H          5.17996       -0.26236       -1.59210
H          2.71747       -0.16592       -1.39021
H          3.08624        1.16893        2.62282
H          5.54779        1.08165        2.43427
H         -0.71566        0.40153        2.46204
