87
-129.18401557
P         -1.53707       -0.16533       -0.31639
P          1.75206        0.24619        0.15593
C         -1.08003        1.00046       -1.60311
C          1.52646       -0.87228       -1.24908
C         -0.02880        0.69007       -2.45649
C          0.32451        1.61297       -3.46149
C         -0.39450        2.79121       -3.57807
C         -1.43921        3.07598       -2.72404
C         -1.77988        2.17459       -1.73505
C          2.16425       -2.08582       -1.14126
C          1.97823       -3.06560       -2.09645
C          1.13022       -2.83010       -3.15583
C          0.46734       -1.62193       -3.28287
C          0.67935       -0.61129       -2.32511
Cl         1.11264       -0.00469        3.35342
Cl        -1.64087       -1.47356        2.64729
H         -1.98552        3.99940       -2.82505
H         -2.60008        2.38452       -1.06902
H          2.80729       -2.27312       -0.29699
H          2.48236       -4.01370       -2.00496
H         -0.12235        3.49380       -4.34737
H          0.96705       -3.59566       -3.89540
C         -2.66312       -4.13846       -2.20436
C         -1.73857       -4.11982       -1.16897
C         -1.41641       -2.89850       -0.59005
C         -2.00681       -1.73873       -1.03470
C         -2.92786       -1.76534       -2.05532
C         -3.26013       -2.97240       -2.64209
H         -2.91006       -5.07780       -2.66904
C         -1.06384       -5.36751       -0.71965
H         -0.69196       -2.85791        0.20572
H         -3.37018       -0.84202       -2.39551
H         -3.97690       -3.00086       -3.44633
C         -4.96716        1.48469        2.19037
C         -3.78492        2.19130        2.09326
C         -2.74873        1.69700        1.32471
C         -2.90190        0.50475        0.65619
C         -4.07732       -0.20244        0.75512
C         -5.13287        0.28131        1.51871
H         -5.77252        1.86145        2.79762
H         -3.66659        3.12337        2.62120
H         -1.81957        2.23592        1.24323
H         -4.17456       -1.14642        0.24666
C         -6.39068       -0.50266        1.65240
C          5.71675       -0.58367        2.23666
C          4.64684       -1.43045        2.44763
C          3.43857       -1.18418        1.82363
C          3.30668       -0.09206        0.99765
C          4.37216        0.75271        0.78609
C          5.59760        0.51584        1.39821
H          6.65665       -0.76874        2.72830
H          4.75029       -2.27894        3.10400
H          2.59084       -1.82848        1.99525
H          4.25239        1.60876        0.14416
C          6.74028        1.44713        1.19293
C          1.24130        4.68945       -0.64437
C          2.05733        3.94022       -1.46944
C          2.23044        2.59021       -1.22771
C          1.58370        2.00380       -0.16584
C          0.79928        2.75468        0.67948
C          0.60896        4.11130        0.44774
H          1.09084        5.73711       -0.84191
H          2.54763        4.40348       -2.30987
H          2.84859        1.98585       -1.87232
H          0.35601        2.28950        1.54341
C         -0.28678        4.91262        1.32528
Pd        -0.05824       -0.38893        1.47812
C          1.45299        1.35062       -4.39709
C         -0.46294       -1.42586       -4.42980
H          2.07237        0.52105       -4.05427
H          1.08278        1.10568       -5.39336
H          2.09673        2.22703       -4.48504
H         -1.08777       -2.30787       -4.57728
H         -1.12892       -0.57827       -4.26514
H          0.08953       -1.24776       -5.35313
H         -1.69599       -6.24067       -0.88689
H         -0.12931       -5.51803       -1.26203
H         -0.83145       -5.32528        0.34546
H         -6.59527       -1.07453        0.74608
H         -6.32108       -1.20459        2.48453
H         -7.24569        0.15054        1.83239
H          6.68953        1.92185        0.21192
H          6.73796        2.23433        1.94812
H          7.69376        0.92092        1.25722
H         -0.34024        4.48613        2.32802
H          0.07071        5.93888        1.42006
H         -1.29879        4.94390        0.91883
