45
-71.81382050
C          0.32094        0.57119        2.48072
P          0.94987        0.59756        0.76736
P         -1.63496        0.26297       -1.03215
C         -2.42784       -0.06900       -2.64018
Cl         1.88033       -2.31873        0.23439
H          0.64373       -0.33703        2.98162
H         -3.25274        0.61947       -2.79958
Cl        -1.15009       -2.86884       -1.29998
C          0.29385        2.01295       -0.14280
C         -0.81354        1.86759       -0.95032
C         -1.31921        2.95261       -1.63631
C         -0.70188        4.18584       -1.52185
C          0.41192        4.33015       -0.71735
C          0.91061        3.24134       -0.02400
H         -2.19667        2.83159       -2.25052
H         -1.09302        5.03458       -2.05837
H          0.89214        5.29062       -0.62767
H          1.77850        3.33872        0.60843
Pd         0.03461       -1.20141       -0.38295
H         -2.80922       -1.08599       -2.65803
H         -0.76481        0.60134        2.47579
H         -1.70349        0.05014       -3.44085
C         -4.46146       -0.19398        2.49709
C         -3.98863        1.05761        2.15325
C         -3.13824        1.19977        1.07161
C         -2.77281        0.09192        0.34231
C         -3.23291       -1.15763        0.68676
C         -4.08381       -1.30364        1.76649
H         -5.12367       -0.30546        3.34010
H         -4.27943        1.92214        2.72709
H         -2.75356        2.16825        0.79539
H         -2.89876       -2.01265        0.12121
H         -4.44492       -2.28140        2.03996
C          5.48641        0.51796        0.42855
C          4.89684        0.33960        1.66449
C          3.51891        0.36814        1.78279
C          2.74204        0.57784        0.66625
C          3.32460        0.75112       -0.56857
C          4.70268        0.72314       -0.68955
H          6.55992        0.49297        0.33585
H          5.50872        0.17370        2.53594
H          3.04824        0.22089        2.74112
H          2.69743        0.90457       -1.43304
H          5.16170        0.85712       -1.65524
H          0.69451        1.43291        3.02643
