87
-129.18069003
P         -1.50293       -0.42801       -0.27166
P          1.70968        0.43234        0.26122
C         -1.19916        0.83787       -1.51083
C          1.63086       -0.66095       -1.18171
C         -0.11274        0.70478       -2.36624
C          0.10586        1.69368       -3.34635
C         -0.77720        2.75687       -3.43916
C         -1.85079        2.86862       -2.58072
C         -2.05877        1.90371       -1.61501
C          2.41697       -1.78582       -1.08958
C          2.37143       -2.75867       -2.06861
C          1.51800       -2.60657       -3.13857
C          0.70800       -1.49027       -3.25108
C          0.76966       -0.48717       -2.26422
Cl         1.10601       -0.00561        3.39556
Cl        -1.39074       -1.92804        2.58389
H         -2.52473        3.70559       -2.66220
H         -2.90103        1.97660       -0.94725
H          3.06549       -1.90982       -0.23739
H          2.99100       -3.63684       -1.98873
H         -0.61323        3.50598       -4.19504
H          1.46779       -3.36691       -3.89954
C         -2.25892       -4.39930       -2.33978
C         -2.82452       -3.23990       -2.85240
C         -2.59377       -2.04007       -2.18852
C         -1.80883       -2.00863       -1.05954
C         -1.25707       -3.16235       -0.55510
C         -1.48016       -4.36395       -1.19977
H         -2.43820       -5.33493       -2.84153
C         -3.68260       -3.28360       -4.06751
H         -3.02119       -1.12423       -2.56294
H         -0.67046       -3.12050        0.34796
H         -1.05046       -5.27195       -0.80962
C         -5.08169        0.78763        2.26975
C         -5.12893       -0.38284        1.53807
C         -4.04741       -0.75553        0.76242
C         -2.93130        0.04608        0.72113
C         -2.88103        1.21094        1.45088
C         -3.95453        1.59735        2.24301
H         -5.92421        1.08122        2.87243
H         -6.00656       -1.00728        1.57356
H         -4.06589       -1.67040        0.19294
H         -2.00280        1.83160        1.40147
C         -3.90058        2.86977        3.01287
C          5.80440        0.12517        2.22450
C          5.51660        1.18026        1.38139
C          4.26940        1.27146        0.79201
C          3.31973        0.31106        1.05277
C          3.60597       -0.74271        1.88961
C          4.85621       -0.85434        2.48567
H          6.77187        0.05670        2.69207
H          6.26149        1.93396        1.18509
H          4.02931        2.09099        0.13410
H          2.84721       -1.47825        2.09989
C          5.14643       -1.97483        3.42107
C          0.49525        4.78889       -0.18794
C          0.05155        4.04974        0.89075
C          0.44057        2.73103        1.02478
C          1.24419        2.15588        0.06728
C          1.71044        2.89663       -0.99300
C          1.34312        4.23025       -1.13446
H          0.19350        5.81652       -0.29866
H         -0.58674        4.50213        1.63200
H          0.16077        2.15725        1.89384
H          2.35365        2.43256       -1.72162
C          1.82013        5.03706       -2.29050
Pd        -0.00421       -0.52464        1.51762
C          1.25974        1.61709       -4.28459
C         -0.21175       -1.38419       -4.41838
H          2.00784        0.90214       -3.94014
H          0.93249        1.31075       -5.27884
H          1.75056        2.58665       -4.37895
H         -0.98027       -0.62779       -4.25696
H          0.33703       -1.12098       -5.32334
H         -0.71913       -2.33276       -4.59925
H         -3.31380       -4.02077       -4.78224
H         -4.70830       -3.54908       -3.80778
H         -3.70300       -2.31589       -4.57099
H         -4.58235        2.84617        3.86411
H         -2.89598        3.05046        3.39835
H         -4.17660        3.71615        2.38235
H          4.78702       -1.74229        4.42442
H          4.65844       -2.89418        3.09408
H          6.21762       -2.17167        3.48319
H          1.01999        5.18484       -3.01690
H          2.16467        6.01956       -1.96473
H          2.65070        4.54693       -2.80032
