171
-217.84219827
P         -1.61669        0.40776       -0.41880
P          1.56273       -0.39577       -0.36919
C         -0.91007        1.35863       -1.76879
C          0.87354       -1.34473       -1.72957
C         -0.08382        0.75314       -2.70901
C          0.55024        1.56106       -3.67327
C          0.29180        2.92137       -3.69237
C         -0.56574        3.49540       -2.77813
C         -1.15442        2.70978       -1.80670
C          1.08189       -2.70246       -1.75143
C          0.52131       -3.47695       -2.74766
C         -0.26097       -2.88234       -3.71438
C         -0.48226       -1.51503       -3.71129
C          0.10974       -0.72260       -2.70958
Cl         1.60756        0.28921        2.76233
Cl        -1.66562       -0.42022        2.79161
C         -1.31477       -0.89902       -4.78038
C          1.50312        0.98970       -4.66470
H         -0.76626        4.55380       -2.81274
H         -1.80707        3.15350       -1.07221
H          1.69051       -3.16067       -0.98931
H          0.69403       -4.54061       -2.76802
H          0.77473        3.53331       -4.43558
H         -0.70742       -3.48307       -4.48875
C         -3.94294       -3.31332       -1.52123
C         -2.93677       -3.39735       -0.56612
C         -2.21864       -2.24515       -0.27807
C         -2.49963       -1.06649       -0.92231
C         -3.49848       -0.99760       -1.86245
C         -4.24865       -2.12513       -2.17657
H         -4.51206       -4.19342       -1.74992
H         -1.44745       -2.26118        0.47320
H         -3.70707       -0.05256       -2.33548
C         -4.23021        2.90895        2.32239
C         -4.81928        1.89010        1.58370
C         -4.00890        1.15528        0.72694
C         -2.67252        1.44662        0.60918
C         -2.11057        2.46544        1.33901
C         -2.87808        3.21295        2.22153
H         -4.84389        3.46362        3.00691
H         -4.40864        0.33214        0.16211
H         -1.05494        2.65820        1.24572
C          4.31335       -2.93439        2.20003
C          2.95954       -3.24908        2.15524
C          2.14127       -2.48194        1.33638
C          2.65562       -1.43081        0.61934
C          3.99016       -1.12160        0.69355
C          4.85030       -1.87105        1.48317
H          4.96369       -3.52789        2.81295
H          1.08792       -2.69263        1.26725
H          4.36474       -0.27798        0.14107
C          3.91069        3.28395       -1.54269
C          2.88775        3.41270       -0.61056
C          2.14906        2.27882       -0.30065
C          2.44121        1.07426       -0.88996
C          3.45627        0.96174       -1.80769
C          4.21602        2.07327       -2.15319
H          4.50274        4.14396       -1.79228
H          1.34612        2.32958        0.41424
H          3.65840       -0.00526       -2.23639
Pd        -0.05651        0.01781        1.28083
C         -1.16756       -5.10403       -0.08925
C         -2.61916       -4.68783        0.20208
C         -3.55121       -5.84383       -0.20781
C         -2.79208       -4.43263        1.71177
H         -0.47028       -4.31798        0.19573
H         -0.90182       -6.00700        0.46002
H         -1.03184       -5.30265       -1.15175
H         -3.31306       -6.74853        0.35151
H         -4.59369       -5.59697       -0.00756
H         -3.44688       -6.07513       -1.26772
H         -2.12251       -3.64828        2.06185
H         -3.81242       -4.12152        1.93454
H         -2.57935       -5.33331        2.28727
C         -4.87047       -1.56525       -4.54660
C         -5.40952       -2.01341       -3.17764
C         -6.42516       -0.97876       -2.65967
C         -6.13906       -3.35861       -3.36127
H         -4.16206       -2.29564       -4.93561
H         -5.67935       -1.46519       -5.27020
H         -4.36562       -0.60264       -4.47716
H         -6.80937       -1.27478       -1.68388
H         -5.97023        0.00593       -2.55922
H         -7.27097       -0.88661       -3.34078
H         -6.56196       -3.70782       -2.41943
H         -6.95873       -3.25929       -4.07282
H         -5.46278       -4.12314       -3.74334
C         -7.14501        2.83681        1.50645
C         -6.30890        1.57122        1.77380
C         -6.53867        1.08942        3.21749
C         -6.77999        0.46777        0.80712
H         -6.96705        3.20903        0.49769
H         -8.21010        2.62807        1.60592
H         -6.89702        3.63375        2.20626
H         -7.58552        0.83558        3.38308
H         -5.93824        0.20421        3.42654
H         -6.26223        1.85788        3.93854
H         -7.84293        0.26532        0.93790
H         -6.62518        0.76927       -0.22827
H         -6.24411       -0.46507        0.98171
C         -1.12122        3.61197        3.95850
C         -2.19785        4.28449        3.08490
C         -3.20310        4.99823        4.00854
C         -1.54244        5.33542        2.17178
H         -0.62321        4.34125        4.59695
H         -1.56620        2.84936        4.59719
H         -0.35996        3.12784        3.34821
H         -3.98267        5.49433        3.43064
H         -3.67431        4.29416        4.69408
H         -2.70347        5.75805        4.60941
H         -1.06154        6.11827        2.75804
H         -0.78395        4.88269        1.53663
H         -2.28504        5.80302        1.52557
C          1.02016       -4.00339        3.57810
C          2.36186       -4.42404        2.94284
C          3.30177       -4.88038        4.07618
C          2.13179       -5.59995        1.97920
H          0.62328       -4.79642        4.21154
H          1.14749       -3.11206        4.19208
H          0.26808       -3.78530        2.82203
H          4.22991       -5.29231        3.68128
H          3.54582       -4.04876        4.73702
H          2.83241       -5.65842        4.67814
H          3.07406       -5.93183        1.54361
H          1.67906       -6.44680        2.49460
H          1.47353       -5.30949        1.16183
C          6.93943       -1.59447        0.12662
C          6.33550       -1.48656        1.53913
C          7.12928       -2.40790        2.48466
C          6.46344       -0.03745        2.04658
H          6.43637       -0.92519       -0.57012
H          7.99787       -1.33478        0.13327
H          6.84244       -2.60985       -0.25714
H          7.08418       -3.44471        2.15189
H          8.17935       -2.11736        2.51579
H          6.74169       -2.35308        3.50178
H          5.96722        0.66349        1.37624
H          6.00983        0.06582        3.03205
H          7.50944        0.25890        2.12244
C          2.39979        4.54463        1.58428
C          2.54615        4.74953        0.06292
C          1.22356        5.27270       -0.51917
C          3.64477        5.80369       -0.17497
H          2.20236        5.49083        2.08778
H          1.57895        3.87014        1.82165
H          3.31188        4.12201        2.00497
H          0.42346        4.54855       -0.37351
H          0.92720        6.20801       -0.04472
H          1.31989        5.45155       -1.58979
H          3.41559        6.72719        0.35669
H          4.61142        5.44646        0.17989
H          3.73364        6.05052       -1.23260
C          5.26984        3.03370       -4.22795
C          5.41136        1.98043       -3.11244
C          5.50808        0.58843       -3.76756
C          6.70544        2.23891       -2.31930
H          5.27059        4.04528       -3.82440
H          6.09407        2.96120       -4.93736
H          4.34027        2.89420       -4.77826
H          5.67015       -0.18814       -3.02053
H          4.60024        0.35041       -4.32095
H          6.34257        0.54785       -4.46749
H          6.70060        3.23221       -1.87160
H          6.81643        1.51162       -1.51528
H          7.58074        2.16593       -2.96451
H         -1.88187       -0.04967       -4.39674
H          1.74412       -0.04977       -4.43869
H         -2.02466       -1.61853       -5.18857
H         -0.69376       -0.54619       -5.60432
H          2.43807        1.55029       -4.66468
H          1.08994        1.03102       -5.67346
