111
-148.55505796
P         -1.50035        2.64831        1.19529
P         -0.35967       -0.22505        0.55583
C         -1.00903        1.55050        2.55510
C         -0.57898        0.27047        2.27521
C         -0.38437        4.11852        1.09448
C          0.44896        4.07308       -0.16895
C         -1.03700        1.99526        3.86131
H         -1.33721        3.00877        4.07160
C         -0.65757        1.14570        4.88628
H         -0.68266        1.49118        5.90687
C         -0.24103       -0.14125        4.60321
H          0.05922       -0.80019        5.40121
C         -0.19169       -0.57746        3.29130
H          0.16306       -1.56692        3.04849
Pd        -1.65572        1.26231       -0.64226
Cl        -2.79343        2.87326       -1.70730
Cl        -1.68516       -0.20195       -2.34700
C         -1.35960        5.31040        1.16805
C         -3.12740        3.48963        1.46859
H         -0.19219        4.04278       -1.05227
H          1.09321        4.95120       -0.25501
H          1.08423        3.18548       -0.19723
H         -1.55698        5.66576        0.14737
H         -0.88956        6.15854        1.68845
H         -3.62719        3.49285        0.49093
C         -2.70534        4.92128        1.84469
C         -3.98833        2.78267        2.49380
H          0.25064        4.08166        1.98922
H         -2.60221        4.98651        2.93654
H         -3.49971        5.63602        1.58038
H         -4.17369        1.74517        2.20637
H         -3.50642        2.76981        3.47169
H         -4.95414        3.27907        2.61243
C         -0.79462       -4.69881       -0.16648
C         -1.93443       -3.92809        0.17918
C         -1.76435       -2.57467        0.42403
C         -0.54036       -1.97960        0.26650
C          0.54076       -2.69902       -0.17165
C          0.43906       -4.05407       -0.43722
O         -0.88058       -6.11596       -0.20885
C         -3.33716       -4.54335        0.30299
H         -2.59026       -1.96148        0.74185
H          1.47461       -2.18174       -0.30746
C          1.66006       -4.79759       -1.00148
C          3.63145        1.38198       -0.94003
C          3.30756        1.47488        0.43800
C          2.10586        0.93809        0.86740
C          1.21979        0.39251       -0.02367
C          1.47784        0.40435       -1.36877
C          2.65876        0.92591       -1.86597
O          4.93720        1.71808       -1.38621
C          4.24270        2.13498        1.46282
H          1.84192        0.94381        1.91010
H          0.71840        0.02299       -2.02891
C          2.86244        0.99153       -3.38736
C         -3.51848       -5.71058       -0.68463
C         -3.55463       -5.03038        1.74337
C         -4.42296       -3.49645       -0.03479
C          2.51926       -3.84963       -1.86994
C          2.52114       -5.31769        0.15916
C          1.22858       -5.96518       -1.90738
C         -0.57633       -6.75176        1.02612
H         -2.84122       -6.53045       -0.45837
H         -4.53450       -6.10256       -0.64632
H         -3.31875       -5.38394       -1.70462
H         -3.45675       -4.20499        2.44817
H         -4.54806       -5.46170        1.86393
H         -2.82415       -5.78776        2.01749
H         -5.40803       -3.96049       -0.07800
H         -4.47301       -2.71040        0.71711
H         -4.22759       -3.03451       -1.00225
H          1.90847       -3.36462       -2.63089
H          3.00037       -3.07688       -1.27212
H          3.31125       -4.40015       -2.37713
H          3.40174       -5.84130       -0.21212
H          2.85815       -4.49396        0.78805
H          1.96096       -6.00597        0.78769
H          2.09284       -6.44991       -2.36077
H          0.68352       -6.72128       -1.34787
H          0.58004       -5.60988       -2.70746
H         -1.42890       -7.34907        1.34891
H          0.27587       -7.41822        0.89457
H         -0.34263       -6.00865        1.78956
C          5.84054        0.62027       -1.40801
C          5.02936        3.29426        0.82474
C          3.43365        2.73262        2.63670
C          5.21089        1.08105        2.02020
C          1.50748        1.17779       -4.10892
C          3.74539        2.19066       -3.77745
C          3.50149       -0.31844       -3.87180
H          5.64460        3.80488        1.56515
H          5.68951        2.93890        0.03724
H          4.34911        4.02419        0.38700
H          2.96357        1.95752        3.24016
H          4.08102        3.30533        3.30036
H          2.65607        3.40176        2.27001
H          4.66291        0.26889        2.49741
H          5.82049        0.64959        1.22988
H          5.88006        1.51828        2.76082
H          0.87755        0.29402       -4.02063
H          0.96311        2.02804       -3.69868
H          1.65698        1.35798       -5.17311
H          3.83535        2.27553       -4.86010
H          3.31978        3.11926       -3.39842
H          4.74890        2.09358       -3.37081
H          4.46475       -0.48703       -3.39607
H          3.65599       -0.30219       -4.95033
H          2.86198       -1.16832       -3.63560
H          6.70101        0.84383       -0.77754
H          5.34956       -0.28419       -1.04645
H          6.19642        0.45876       -2.42534
