105
-153.06454922
Cl        -0.02560        1.96423        3.08358
Pd        -0.44869        1.33575        0.95804
P         -1.07980        0.50516       -1.15159
N         -0.65892       -0.99491       -1.97390
C          0.23752       -2.00127       -1.61794
C          0.35335       -2.48507       -0.29031
C          1.28961       -3.50281       -0.00695
C          1.37505       -4.05020        1.39891
C          2.60352       -4.93279        1.67364
C          2.85736       -5.90194        0.51631
C          3.08683       -5.12955       -0.79043
C          2.07081       -4.04219       -1.03349
C          1.90808       -3.57726       -2.33219
C          1.00800       -2.58620       -2.62163
H          0.90319       -2.22715       -3.63062
H          2.51070       -4.00115       -3.11760
H          4.08584       -4.67778       -0.78225
H          3.70806       -6.56209        0.73774
H          3.48570       -4.29465        1.81045
H          1.36744       -3.21204        2.10417
C         -0.65848       -2.11633        0.73008
C         -0.25686       -1.50692        1.94938
C         -1.20476       -1.36339        2.96683
C         -2.49817       -1.78125        2.79174
C         -2.91334       -2.36593        1.60160
C         -4.34460       -2.83603        1.50215
C         -4.78863       -3.20507        0.07784
C         -3.70204       -4.01266       -0.63645
C         -2.39644       -3.20869       -0.72477
C         -1.99305       -2.53461        0.56485
H         -1.57833       -3.85962       -1.05760
H         -4.03967       -4.32276       -1.63553
H         -4.99058       -2.29010       -0.49240
H         -5.00151       -2.06118        1.91673
H         -3.21328       -1.65775        3.58742
H         -0.90900       -0.89250        3.88786
N          1.03791       -1.00365        2.14673
P          1.61569        0.21522        1.01282
C          2.61496       -0.33312       -0.35772
C          2.41462        0.25002       -1.58404
C          3.22195       -0.10328       -2.64960
C          4.24467       -1.02781       -2.48239
C          4.43822       -1.59341       -1.22847
C          3.62791       -1.24027       -0.16423
H          3.77594       -1.66844        0.81448
H          5.22494       -2.31535       -1.09161
C          5.08667       -1.44181       -3.63820
H          3.05784        0.33413       -3.61942
H          1.61994        0.96711       -1.70194
C          2.54947        1.51457        1.82710
C          3.25235        1.24464        2.97650
C          3.97285        2.25236        3.59185
C          3.99086        3.53474        3.05959
C          3.29026        3.78085        1.88645
C          2.57123        2.77208        1.27138
H          2.02408        2.96079        0.36066
H          3.30995        4.76824        1.45781
C          4.78149        4.61579        3.71049
H          4.52653        2.04778        4.49225
H          3.24229        0.24727        3.38536
H          1.17895       -0.56658        3.04829
H         -0.93253       -0.90929       -2.94480
C         -0.62312        1.88492       -2.21599
C         -0.92176        3.17177       -1.83726
C         -0.56111        4.23460       -2.64287
C          0.10885        4.01744       -3.83871
C          0.38959        2.71166       -4.21637
C          0.02414        1.65160       -3.40725
H          0.25746        0.64135       -3.69820
H          0.89759        2.53018       -5.14818
C          0.48044        5.15954       -4.71909
H         -0.79879        5.24197       -2.34640
H         -1.44035        3.33885       -0.90828
C         -2.87538        0.50644       -1.07966
C         -3.56243        0.70371       -2.25407
C         -4.94619        0.70461       -2.25194
C         -5.65049        0.51968       -1.07020
C         -4.93895        0.31406        0.10312
C         -3.55686        0.29828        0.09444
H         -3.00349        0.13471        1.00486
H         -5.47492        0.16747        1.02508
C         -7.13919        0.49666       -1.06567
H         -5.48752        0.85272       -3.17067
H         -3.01280        0.85830       -3.16957
Cl        -2.26661        2.67205        1.01620
H          3.08378       -5.81859       -1.64477
H          2.48745       -5.47970        2.62002
H          1.99076       -6.56509        0.40060
H          0.45863       -4.61554        1.60566
H         -3.51941       -4.94336       -0.08475
H         -2.49398       -2.43886       -1.49888
H         -4.46884       -3.70391        2.16084
H         -5.73901       -3.75713        0.09369
H          6.08290       -1.74371       -3.31199
H          4.63468       -2.28444       -4.16330
H          5.20516       -0.62492       -4.35145
H          4.31762        5.59063        3.55386
H          4.85676        4.45514        4.78684
H          5.79303        4.65454        3.30400
H          1.37596        4.93404       -5.29986
H         -0.32546        5.38804       -5.41782
H          0.68352        6.05760       -4.13399
H         -7.53508        0.89297       -0.12959
H         -7.54548        1.10036       -1.87835
H         -7.51099       -0.52208       -1.18412
