111
-148.55020653
P         -2.06117        2.55275        0.84795
P         -0.25512       -0.04209        0.54715
C         -1.34879        1.77526        2.31922
C         -0.56407        0.65088        2.18599
C         -1.65502        4.35875        0.84665
C         -0.97719        4.76355       -0.44401
C         -1.52858        2.34864        3.56183
H         -2.11995        3.24498        3.65390
C         -0.92674        1.78670        4.67432
H         -1.06913        2.23216        5.64536
C         -0.12869        0.66759        4.53746
H          0.35456        0.23931        5.40017
C          0.06286        0.10598        3.28788
H          0.72117       -0.73921        3.16059
Pd        -1.35987        1.32817       -0.97749
Cl        -2.67082        2.63505       -2.24581
Cl        -0.44865        0.15582       -2.66129
C         -3.02711        5.02710        1.07107
C         -3.91115        2.63125        0.82999
H         -0.07355        4.17597       -0.61935
H         -1.64224        4.60212       -1.29382
H         -0.69957        5.82027       -0.43865
H         -3.04810        6.00115        0.56087
H         -3.16537        5.25000        2.13922
H         -4.23427        2.02070       -0.02460
C         -4.19451        4.12658        0.57841
C         -4.51056        2.09568        2.11252
H         -0.98486        4.52934        1.70040
H         -5.13727        4.41008        1.06855
H         -4.35546        4.29864       -0.49607
H         -5.60248        2.09713        2.07491
H         -4.17997        1.07291        2.30842
H         -4.21298        2.70844        2.96449
C         -0.92829       -4.54828        0.22750
C         -1.09153       -3.91258        1.48461
C         -0.89153       -2.54428        1.56026
C         -0.60890       -1.80285        0.44136
C         -0.57710       -2.40181       -0.79107
C         -0.76755       -3.76363       -0.94184
O         -0.88718       -5.96574        0.14756
C         -1.43661       -4.69306        2.76279
H         -0.95124       -2.03970        2.50662
H         -0.39890       -1.77759       -1.64780
C         -0.76481       -4.36432       -2.35642
C          3.96455        1.08684       -0.72424
C          3.53552       -0.25663       -0.87931
C          2.24755       -0.58185       -0.49076
C          1.42914        0.34933        0.09052
C          1.87041        1.62407        0.33338
C          3.15002        2.01483       -0.02497
O          5.19117        1.51642       -1.29714
C          4.41764       -1.35098       -1.50033
H          1.85906       -1.57090       -0.65367
H          1.19057        2.31428        0.80332
C          3.62818        3.43218        0.32692
C         -0.13875       -5.15711        3.44102
C         -2.21905       -3.80196        3.75422
C         -2.33136       -5.90527        2.44606
C          0.67749       -4.70578       -2.76064
C         -1.64988       -5.62177       -2.42951
C         -1.33628       -3.35335       -3.37708
C          0.42113       -6.51225        0.25841
H          0.43473       -5.81093        2.78839
H          0.49101       -4.30398        3.69246
H         -0.35184       -5.70230        4.36017
H         -1.59695       -3.00448        4.15799
H         -3.08502       -3.35121        3.27013
H         -2.57641       -4.38743        4.60108
H         -3.23389       -5.58998        1.92358
H         -1.81503       -6.62498        1.81552
H         -2.62983       -6.42125        3.35829
H          1.29720       -3.80963       -2.76691
H          1.12514       -5.41337       -2.06659
H          0.71023       -5.14399       -3.75776
H         -1.26445       -6.41653       -1.79604
H         -2.66409       -5.39617       -2.10175
H         -1.70006       -6.00730       -3.44750
H         -0.67717       -2.49713       -3.51113
H         -1.45853       -3.81784       -4.35518
H         -2.31098       -2.98735       -3.05584
H          0.67382       -7.04897       -0.65578
H          1.15163       -5.72015        0.42810
H          0.45163       -7.21885        1.08772
C          5.07224        1.98459       -2.63471
C          4.15913       -1.40551       -3.01393
C          5.90961       -1.09402       -1.22204
C          4.08132       -2.73222       -0.89186
C          5.13417        3.43764        0.64590
C          3.33270        4.38102       -0.84428
C          2.89640        3.96038        1.58225
H          3.11083       -1.62314       -3.21748
H          4.39562       -0.45611       -3.48856
H          4.76319       -2.17949       -3.48660
H          6.52575       -1.90483       -1.60994
H          6.24895       -0.17257       -1.68770
H          6.09116       -1.01248       -0.15091
H          4.78407       -3.48926       -1.23921
H          4.13491       -2.69951        0.19598
H          3.08549       -3.06873       -1.17495
H          5.35815        2.73976        1.45201
H          5.72315        3.14647       -0.22059
H          5.46631        4.42901        0.95297
H          3.63168        5.40117       -0.60471
H          3.86590        4.07863       -1.74175
H          2.26884        4.38700       -1.07772
H          3.32596        4.90631        1.91121
H          2.97773        3.25166        2.40605
H          1.84022        4.14029        1.38710
H          5.63480        1.33477       -3.30450
H          4.02509        2.00082       -2.93980
H          5.48972        2.98887       -2.70650
