111
-148.55391554
P         -2.58136        1.96023        1.02835
P          0.17636        0.50989        0.45843
C         -1.44047        1.61162        2.39798
C         -0.21976        1.02829        2.13696
C         -3.59342        3.46742        1.39965
C         -3.51652        4.48286        0.28135
C         -1.79001        1.91565        3.69871
H         -2.75300        2.35322        3.90414
C         -0.91024        1.64199        4.73188
H         -1.18352        1.87977        5.74699
C          0.31513        1.06228        4.46487
H          0.99864        0.84640        5.26947
C          0.65940        0.74948        3.16233
H          1.60370        0.27916        2.93699
Pd        -1.31210        1.67582       -0.88739
Cl        -2.99829        2.51709       -2.09407
Cl         0.06609        1.23906       -2.60784
C         -5.00622        2.88716        1.62078
C         -3.91930        0.69353        0.85446
H         -4.07842        5.38854        0.52159
H         -2.48288        4.76942        0.07419
H         -3.93565        4.07274       -0.63827
H         -5.75898        3.62479        1.30635
H         -5.18128        2.72588        2.69467
H         -3.77181        0.20593       -0.11921
C         -5.20525        1.54519        0.86097
C         -3.84626       -0.32428        1.97151
H         -3.19129        3.89869        2.32605
H         -6.02766        0.96583        1.30543
H         -5.51612        1.75700       -0.17275
H         -4.62948       -1.08045        1.87869
H         -2.88183       -0.83614        1.97535
H         -3.96502        0.16013        2.94253
C         -1.26940       -3.76559       -0.17263
C         -1.00315       -3.30218        1.14135
C         -0.55224       -2.00274        1.30043
C         -0.42172       -1.16376        0.22534
C         -0.76039       -1.58013       -1.03383
C         -1.23622       -2.85871       -1.26263
O         -1.53111       -5.14292       -0.40002
C         -1.15817       -4.19893        2.37951
H         -0.28555       -1.62801        2.27275
H         -0.63197       -0.88508       -1.84493
C         -1.68877       -3.23739       -2.68119
C          4.61666        0.58510       -0.53644
C          4.03568       -0.56923        0.04796
C          2.67906       -0.54955        0.32416
C          1.92860        0.57723        0.11084
C          2.50625        1.73042       -0.34994
C          3.85765        1.77831       -0.65207
O          5.94367        0.53403       -1.04019
C          4.83650       -1.84628        0.34691
H          2.18091       -1.42849        0.69590
H          1.87693        2.59173       -0.49338
C          4.46560        3.10091       -1.14452
C         -1.47862       -3.35598        3.63503
C         -2.31962       -5.19305        2.19909
C          0.15611       -4.95615        2.62355
C         -2.80397       -4.29779       -2.64511
C         -2.26696       -2.00267       -3.41167
C         -0.48327       -3.75960       -3.47707
C         -0.37182       -5.91039       -0.69951
H         -2.34660       -2.71993        3.46553
H         -1.69947       -4.00003        4.48593
H         -0.63961       -2.72425        3.92293
H         -2.47127       -5.78650        3.10036
H         -3.24680       -4.66397        1.98108
H         -2.12828       -5.88215        1.38021
H          0.08095       -5.59578        3.50257
H          0.41371       -5.58296        1.77337
H          0.97852       -4.25888        2.78236
H         -2.45238       -5.22992       -2.21033
H         -3.64590       -3.94820       -2.04847
H         -3.16746       -4.51857       -3.64840
H         -3.04176       -1.52515       -2.81237
H         -1.49788       -1.26266       -3.62726
H         -2.71009       -2.28914       -4.36502
H         -0.05373       -4.64219       -3.00904
H         -0.77170       -4.02391       -4.49409
H          0.29767       -3.00160       -3.53374
H         -0.46936       -6.35126       -1.69136
H          0.51960       -5.28259       -0.66661
H         -0.27361       -6.71966        0.02394
C          6.03104        0.12390       -2.39922
C          6.29621       -1.51554        0.70664
C          4.23355       -2.59671        1.55704
C          4.78757       -2.77423       -0.87654
C          3.72134        4.30712       -0.52804
C          5.94200        3.22569       -0.72640
C          4.33811        3.17693       -2.67368
H          6.81606       -1.05273       -0.12836
H          6.33671       -0.82539        1.54868
H          6.84645       -2.41586        0.97892
H          4.87193       -3.42877        1.85329
H          4.13167       -1.93153        2.41416
H          3.25381       -3.01307        1.32714
H          5.33553       -3.69724       -0.68881
H          3.75802       -3.03616       -1.11997
H          5.22268       -2.29716       -1.75136
H          3.68043        4.22361        0.55768
H          4.22800        5.24035       -0.77301
H          2.70316        4.38869       -0.90541
H          6.35208        4.19172       -1.01985
H          6.04434        3.12758        0.35381
H          6.55294        2.45545       -1.19017
H          3.29278        3.11624       -2.97578
H          4.86823        2.35859       -3.15475
H          4.74649        4.11282       -3.05405
H          6.63893       -0.77779       -2.47134
H          5.03653       -0.07425       -2.80105
H          6.51162        0.90564       -2.98721
