171
-217.84573503
P         -1.58897        0.44961       -0.28792
P          1.56758       -0.35911       -0.38315
C         -0.90901        1.45995       -1.60979
C          0.82706       -1.25053       -1.75182
C         -0.13359        0.89226       -2.61484
C          0.47290        1.74142       -3.56013
C          0.24770        3.10637       -3.49060
C         -0.54908        3.64612       -2.50384
C         -1.11912        2.81679       -1.55886
C          1.01864       -2.60845       -1.82196
C          0.42996       -3.33979       -2.83497
C         -0.36327       -2.70147       -3.76484
C         -0.57078       -1.33309       -3.70943
C          0.04966       -0.58334       -2.69119
Cl         1.71945        0.46747        2.80581
Cl        -1.39551       -0.12940        3.03213
C         -1.43741       -0.68469       -4.73180
C          1.33962        1.19955       -4.64130
H         -0.72138        4.70933       -2.46472
H         -1.73463        3.23199       -0.77790
H          1.63046       -3.09774       -1.08093
H          0.58843       -4.40393       -2.89712
H          0.70677        3.74937       -4.22255
H         -0.83506       -3.26900       -4.54924
C         -3.75619       -3.31074       -1.55877
C         -2.78706       -3.39707       -0.56666
C         -2.11326       -2.23464       -0.21658
C         -2.39947       -1.04760       -0.84344
C         -3.36195       -0.97668       -1.82053
C         -4.06657       -2.11513       -2.19537
H         -4.30330       -4.19214       -1.83538
H         -1.37539       -2.24801        0.56727
H         -3.56866       -0.02106       -2.27169
C         -4.46895        2.79710        2.31900
C         -4.95778        1.74785        1.55039
C         -4.05783        1.05365        0.75229
C         -2.73269        1.41012        0.71864
C         -2.26899        2.45414        1.47968
C         -3.12817        3.16354        2.30748
H         -5.15505        3.33146        2.94874
H         -4.38237        0.21814        0.15843
H         -1.22204        2.70439        1.44444
C          4.16735       -3.10260        2.14330
C          2.78588       -3.22187        2.22658
C          2.01389       -2.40142        1.41380
C          2.60336       -1.46920        0.59492
C          3.96990       -1.34740        0.54986
C          4.78278       -2.16517        1.32295
H          4.77544       -3.75910        2.73572
H          0.94060       -2.46957        1.43166
H          4.40868       -0.60193       -0.08874
C          3.98852        3.25299       -1.63733
C          2.94604        3.41715       -0.73391
C          2.21928        2.29124       -0.36960
C          2.51028        1.06765       -0.91882
C          3.52705        0.92658       -1.83198
C          4.30759        2.01879       -2.19222
H          4.57190        4.11457       -1.90170
H          1.41981        2.35900        0.34744
H          3.71785       -0.04465       -2.25714
Pd         0.05309        0.12778        1.33390
C         -0.99412       -5.06699       -0.03740
C         -2.47360       -4.70177        0.17828
C         -3.33966       -5.87261       -0.32470
C         -2.75310       -4.50030        1.67972
H         -0.33579       -4.26088        0.28091
H         -0.72635       -5.96290        0.52233
H         -0.79776       -5.25812       -1.09160
H         -3.10060       -6.78890        0.21504
H         -4.39993       -5.66929       -0.17550
H         -3.16851       -6.06002       -1.38462
H         -2.51768       -5.40108        2.24618
H         -2.16199       -3.68238        2.08858
H         -3.80343       -4.26158        1.84546
C         -6.52468       -2.45518       -2.52990
C         -5.20419       -2.07604       -3.22602
C         -4.91275       -3.07979       -4.35742
C         -5.36637       -0.67263       -3.84212
H         -6.74109       -1.76702       -1.71334
H         -7.35907       -2.42106       -3.23020
H         -6.47808       -3.46126       -2.11462
H         -3.96304       -2.85606       -4.84095
H         -4.86126       -4.10016       -3.97976
H         -5.69332       -3.04693       -5.11734
H         -4.45347       -0.35359       -4.34325
H         -6.16804       -0.66494       -4.58048
H         -5.61601        0.06433       -3.07900
C         -6.78530        0.92530        3.05333
C         -6.44400        1.36927        1.61953
C         -6.78062        0.21392        0.65544
C         -7.30144        2.58852        1.23293
H         -7.83175        0.63131        3.13267
H         -6.17138        0.07439        3.34803
H         -6.60845        1.72808        3.76821
H         -7.84074       -0.03448        0.70373
H         -6.55161        0.48569       -0.37485
H         -6.22047       -0.68604        0.90888
H         -8.36246        2.33985        1.24945
H         -7.14429        3.41900        1.92005
H         -7.05089        2.93193        0.22938
C         -1.36730        3.79308        3.98259
C         -2.56974        4.30709        3.16553
C         -3.62475        4.85012        4.14829
C         -2.11921        5.45175        2.24161
H         -0.98044        4.57148        4.63982
H         -1.65740        2.94252        4.59896
H         -0.55147        3.47192        3.33667
H         -4.47490        5.27782        3.61739
H         -3.98824        4.06079        4.80608
H         -3.20147        5.63522        4.77473
H         -1.70093        6.27781        2.81642
H         -1.35952        5.11168        1.53975
H         -2.95986        5.83296        1.66218
C          2.25324       -5.64384        2.54472
C          2.14741       -4.24622        3.17627
C          0.66324       -3.91810        3.43460
C          2.87255       -4.23379        4.53715
H          1.80015       -6.39901        3.18676
H          1.74655       -5.67059        1.58026
H          3.29501       -5.91915        2.38178
H          0.54754       -2.89881        3.80316
H          0.07372       -4.02420        2.52687
H          0.23869       -4.59345        4.17715
H          3.90470       -4.56895        4.44746
H          2.87746       -3.22931        4.95998
H          2.37654       -4.89528        5.24729
C          6.77869       -2.41269       -0.16619
C          6.30806       -2.00896        1.24185
C          7.02964       -2.89583        2.27506
C          6.68731       -0.54085        1.51766
H          6.30362       -1.79809       -0.92883
H          7.85797       -2.29898       -0.26631
H          6.52670       -3.45262       -0.37313
H          6.83629       -3.95241        2.09108
H          8.10827       -2.74709        2.22556
H          6.70838       -2.65583        3.28850
H          7.76855       -0.40622        1.49424
H          6.25443        0.13006        0.77715
H          6.32909       -0.22991        2.49878
C          3.84697        5.24189        0.72425
C          2.65239        4.80140       -0.13984
C          1.38822        4.78077        0.74137
C          2.43123        5.81455       -1.27871
H          3.66548        6.21834        1.17302
H          4.02339        4.52748        1.52821
H          4.75840        5.30949        0.13116
H          1.51374        4.11599        1.59571
H          1.16996        5.77569        1.12907
H          0.52271        4.44928        0.16884
H          2.17905        6.79782       -0.88200
H          3.32335        5.92443       -1.89377
H          1.61639        5.49315       -1.92630
C          4.97817        1.45288       -4.54678
C          5.49605        1.82912       -3.14870
C          6.40382        0.70296       -2.61902
C          6.34185        3.11206       -3.26778
H          5.80546        1.27750       -5.23433
H          4.37486        0.54638       -4.51180
H          4.36658        2.25485       -4.95841
H          6.74174        0.92380       -1.60688
H          5.87853       -0.25054       -2.60119
H          7.28457        0.58207       -3.24949
H          5.75997        3.92986       -3.69234
H          6.71919        3.42343       -2.29382
H          7.20065        2.94962       -3.91902
H         -2.32641       -1.28515       -4.92357
H          2.15983        1.88416       -4.85704
H         -0.90596       -0.56971       -5.67732
H         -1.77026        0.30189       -4.40656
H          0.77408        1.06030       -5.56331
H          1.77320        0.23909       -4.35911
