72
-108.39176629
Cl        -1.83210        0.18012        2.86550
Cl         0.82881       -1.39409        2.66193
P          1.22380       -0.97104       -0.29292
P         -2.22013        0.20210       -0.39779
C         -3.37348       -1.30153       -0.30719
C         -4.07548       -1.29862        1.04765
C         -4.41413       -1.26716       -1.43411
C         -3.14441        1.84357       -0.11109
C         -4.51320        1.80507       -0.78179
C         -1.40964        0.40349       -2.08646
C         -1.31597       -0.84281       -2.94797
C          1.16664        0.35302       -1.54029
C         -0.03499        1.05290       -2.00216
C          0.40484        2.16226       -2.85070
C          1.85489        2.16325       -2.87081
C          2.32504        1.03268       -2.09100
C         -2.52910       -2.57039       -0.41324
H         -3.35382       -1.28718        1.86416
H         -4.73200       -0.43756        1.15919
H         -4.81117       -2.26580       -1.62361
H         -3.99925       -0.88964       -2.36612
C         -3.30560        2.11228        1.37976
H         -4.97070        2.79582       -0.77499
H         -5.19496        1.13901       -0.25613
H         -2.08344        1.10406       -2.59316
H         -0.62400       -1.55581       -2.50862
H         -0.92132       -0.60099       -3.93684
H         -2.27145       -1.34157       -3.09604
H         -0.24669        2.82177       -3.42671
H          2.48529        2.85451       -3.43528
Pd        -0.54586       -0.43912        1.13384
H          3.36561        0.75067       -1.91425
C         -2.32308        2.96790       -0.73870
H         -4.43388        1.48596       -1.82144
H         -3.84645        1.30990        1.87821
H         -2.33690        2.21244        1.86628
H         -3.85669        3.03837        1.55040
H         -2.37066        2.94738       -1.82734
H         -2.69026        3.94508       -0.41988
H         -1.28047        2.88815       -0.44680
H         -4.69082       -2.19242        1.16356
H         -5.26643       -0.63963       -1.17936
H         -1.80342       -2.63158        0.39709
H         -3.15940       -3.45874       -0.34653
H         -1.99064       -2.62804       -1.35571
C          2.90441       -1.07378        0.36582
C          3.80996       -1.98973       -0.10997
C          4.99666       -1.79856        0.59932
C          4.76416       -0.76982        1.47891
O          3.48490       -0.31451        1.34236
H          3.62397       -2.71600       -0.88566
H          5.91409       -2.35172        0.48144
H          5.47905       -0.36627        2.18544
C          0.82206       -2.62165       -0.89257
C          0.63524       -3.65558       -0.01018
C          0.34996       -4.79305       -0.76685
C          0.37774       -4.40285       -2.08387
O          0.66643       -3.07063       -2.17585
H          0.70100       -3.57847        1.06384
H          0.14941       -5.78295       -0.39090
H          0.19865       -5.04519       -2.93717
Fe         1.23808        2.27953       -0.95542
C          2.87538        2.74526        0.21052
C          1.88456        2.02386        0.98300
C          0.65124        2.77921        0.96662
C          0.85994        3.95784        0.14515
C          2.23018        3.92616       -0.33561
H          3.91637        2.44771        0.06628
H          2.05299        1.10036        1.53841
H         -0.24446        2.52472        1.53441
H          0.13586        4.75559       -0.03674
H          2.71055        4.69036       -0.95153
