111
-148.55121191
P         -2.54903        2.13446        0.80308
P          0.11379        0.42767        0.51782
C         -1.49931        1.83496        2.25511
C         -0.32658        1.12438        2.11813
C         -3.42137        3.76178        0.95025
C         -3.20580        4.61920       -0.27706
C         -1.87502        2.30305        3.49840
H         -2.80119        2.84298        3.60738
C         -1.06897        2.06455        4.59827
H         -1.36260        2.43042        5.56863
C          0.10880        1.35655        4.45506
H          0.73515        1.16913        5.31165
C          0.47936        0.88089        3.21012
H          1.38823        0.31387        3.08128
Pd        -1.24072        1.51970       -1.00503
Cl        -2.87744        2.25972       -2.34403
Cl         0.17481        0.86535       -2.62446
C         -4.89066        3.34640        1.17380
C         -3.99709        0.98643        0.71110
H         -2.14247        4.78603       -0.46434
H         -3.62403        4.13578       -1.16088
H         -3.68988        5.59353       -0.17657
H         -5.55669        4.10821        0.74291
H         -5.11624        3.33153        2.25027
H         -3.86457        0.37946       -0.19525
C         -5.19453        1.94783        0.56608
C         -4.05804        0.10045        1.93611
H         -3.01046        4.26317        1.83673
H         -6.08214        1.50348        1.03959
H         -5.45178        2.06328       -0.49718
H         -4.16605        0.70125        2.84110
H         -4.90429       -0.58933        1.89210
H         -3.14513       -0.48993        2.04053
C         -1.22018       -3.90986        0.13724
C         -1.19362       -3.30398        1.42025
C         -0.78039       -1.98530        1.51576
C         -0.47798       -1.25917        0.39407
C         -0.61218       -1.80799       -0.85330
C         -1.01756       -3.11921       -1.02222
O         -1.40535       -5.31286        0.01710
C         -1.56038       -4.06997        2.70097
H         -0.67164       -1.50991        2.47439
H         -0.37315       -1.19050       -1.70154
C         -1.18833       -3.66298       -2.44858
C          4.52759        0.66727       -0.57118
C          3.84475       -0.57348       -0.64133
C          2.50354       -0.60021       -0.30179
C          1.86263        0.52112        0.15555
C          2.54109        1.69993        0.31874
C          3.88725        1.79600        0.00322
O          5.83603        0.78826       -1.11018
C          4.51348       -1.87113       -1.12127
H          1.93122       -1.50449       -0.40989
H          1.99660        2.55250        0.68680
C          4.61937        3.12436        0.25066
C         -0.30057       -4.74081        3.26890
C         -2.13229       -3.11108        3.76967
C         -2.64485       -5.12684        2.42293
C         -2.26077       -4.76581       -2.50000
C         -1.65219       -2.53939       -3.40467
C          0.15935       -4.20666       -2.94742
C         -0.19347       -6.05737        0.02491
H         -0.52693       -5.28361        4.18628
H          0.12503       -5.44534        2.55842
H          0.46284       -3.99697        3.49592
H         -2.97000       -2.54079        3.37017
H         -2.49145       -3.66780        4.63493
H         -1.38005       -2.41129        4.13043
H         -2.95201       -5.62458        3.34238
H         -3.52499       -4.66502        1.97669
H         -2.28686       -5.89225        1.73886
H         -1.97002       -5.63080       -1.90943
H         -3.20822       -4.39749       -2.10799
H         -2.42537       -5.10506       -3.52238
H         -1.90182       -2.94389       -4.38518
H         -2.53738       -2.03843       -3.01370
H         -0.87595       -1.79115       -3.55698
H          0.07288       -4.59376       -3.96231
H          0.91413       -3.42061       -2.94943
H          0.52110       -5.01023       -2.31019
H         -0.09085       -6.60177       -0.91359
H          0.66141       -5.39228        0.15421
H         -0.21616       -6.78257        0.83822
C          5.86358        1.15986       -2.48268
C          4.34837       -1.99181       -2.64393
C          6.00497       -1.90043       -0.74230
C          3.85517       -3.10333       -0.45749
C          4.49146        4.01399       -0.99523
C          4.00219        3.87096        1.45527
C          6.10358        2.88791        0.58459
H          4.79729       -2.91317       -3.01405
H          3.29340       -1.99606       -2.91713
H          4.81866       -1.15787       -3.15914
H          6.46383       -2.84615       -1.02961
H          6.55602       -1.10420       -1.23630
H          6.12997       -1.77537        0.33274
H          4.40880       -4.01175       -0.69386
H          3.83596       -2.99587        0.62672
H          2.83418       -3.25370       -0.80540
H          4.99014        4.97114       -0.84486
H          4.93390        3.53795       -1.86687
H          3.44386        4.21051       -1.22208
H          3.96120        3.22500        2.33194
H          4.59647        4.74740        1.71279
H          2.99404        4.22147        1.23959
H          6.60562        3.82516        0.82337
H          6.63186        2.43635       -0.25129
H          6.20270        2.22207        1.44120
H          6.41594        2.09224       -2.59827
H          6.37316        0.38913       -3.06066
H          4.84884        1.28814       -2.86178
