171
-217.83490392
P         -1.66469        0.67860        0.28454
P          1.48553       -0.21401       -0.30198
C         -0.95099        1.81649       -0.92870
C          0.56802       -0.88271       -1.70903
C         -0.29694        1.41792       -2.08889
C          0.31885        2.39603       -2.89185
C          0.21729        3.72932       -2.53314
C         -0.44665        4.10889       -1.38647
C         -1.01689        3.14440       -0.57800
C          0.63351       -2.21764       -2.02908
C         -0.06708       -2.71357       -3.11056
C         -0.85657       -1.86765       -3.85992
C         -0.97033       -0.52630       -3.53538
C         -0.22503       -0.01852       -2.45343
Cl         2.19418        1.31367        2.54693
Cl        -0.82834        0.75104        3.49827
C         -1.86865        0.35436       -4.33212
C          1.09597        2.03133       -4.10836
H         -0.51077        5.14993       -1.11505
H         -1.51383        3.42380        0.33935
H          1.20802       -2.88649       -1.41366
H         -0.00626       -3.76000       -3.36131
H          0.67509        4.47346       -3.16279
H         -1.40014       -2.24866       -4.70759
C         -2.74966       -3.58280       -0.81822
C         -1.68722       -3.38747        0.05523
C         -1.34659       -2.08009        0.38204
C         -2.02999       -1.02327       -0.17468
C         -3.07716       -1.23877       -1.03651
C         -3.46510       -2.52954       -1.37154
H         -3.04179       -4.58792       -1.06073
H         -0.54312       -1.87975        1.06743
H         -3.60177       -0.38825       -1.43424
C         -5.64699        2.44225        1.53148
C         -5.30557        2.40742        0.18536
C         -4.06512        1.88177       -0.15453
C         -3.21682        1.41034        0.81768
C         -3.57062        1.45668        2.14164
C         -4.79748        1.97839        2.52812
H         -6.60376        2.84289        1.81214
H         -3.74580        1.84048       -1.18220
H         -2.86842        1.09550        2.86969
C          3.95128       -3.54949        1.61112
C          3.24897       -2.68446        2.43994
C          2.50243       -1.67902        1.84405
C          2.46452       -1.52743        0.47836
C          3.20370       -2.36973       -0.31778
C          3.94492       -3.40952        0.22877
H          4.52246       -4.34324        2.05233
H          1.97064       -0.98885        2.47074
H          3.19832       -2.22583       -1.38418
C          4.37525        2.90913       -1.86465
C          3.51743        3.25723       -0.82908
C          2.64233        2.28806       -0.35739
C          2.63931        1.02543       -0.89473
C          3.49289        0.69974       -1.91953
C          4.37954        1.63948       -2.43041
H          5.06152        3.65014       -2.22890
H          1.95638        2.51274        0.43909
H          3.46287       -0.29450       -2.33008
Pd         0.28832        0.64599        1.55952
C          0.24064       -4.18518        1.50869
C         -0.97344       -4.60450        0.66243
C         -0.47696       -5.53546       -0.46033
C         -1.96144       -5.36374        1.56588
H          0.96525       -3.64384        0.90343
H         -0.06262       -3.54870        2.33899
H          0.74523       -5.05685        1.92512
H          0.04999       -6.39535       -0.04708
H         -1.30266       -5.91135       -1.06278
H          0.20937       -5.01044       -1.12296
H         -1.48423       -6.22861        2.02641
H         -2.32913       -4.71661        2.36203
H         -2.82160       -5.71792        0.99870
C         -4.21136       -3.60608       -3.51345
C         -4.67123       -2.81103       -2.27887
C         -5.33924       -1.50622       -2.75615
C         -5.71343       -3.62905       -1.49382
H         -3.48068       -3.03710       -4.08601
H         -3.75132       -4.55137       -3.22804
H         -5.05267       -3.82829       -4.16968
H         -5.70219       -0.92079       -1.91157
H         -4.64204       -0.89383       -3.32676
H         -6.19245       -1.72058       -3.39952
H         -5.30768       -4.58945       -1.17811
H         -6.03160       -3.09034       -0.60138
H         -6.59582       -3.82418       -2.10303
C         -6.60560        4.40529       -0.59519
C         -6.29020        2.92407       -0.87285
C         -7.58533        2.09405       -0.80753
C         -5.70761        2.80815       -2.29571
H         -7.07104        4.53554        0.38105
H         -5.69397        5.00230       -0.61370
H         -7.28721        4.80622       -1.34519
H         -8.29936        2.42480       -1.56157
H         -7.37522        1.03883       -0.98120
H         -8.06388        2.18344        0.16703
H         -6.41531        3.18275       -3.03511
H         -4.79065        3.38926       -2.39277
H         -5.48770        1.77084       -2.54726
C         -4.13946        1.49708        4.93926
C         -5.22881        2.05148        3.99980
C         -6.51030        1.22079        4.19528
C         -5.49693        3.51953        4.37884
H         -3.21346        2.06371        4.84425
H         -4.45780        1.55763        5.97980
H         -3.92697        0.45101        4.71990
H         -7.32870        1.60615        3.58828
H         -6.34242        0.18237        3.91011
H         -6.83106        1.23749        5.23674
H         -6.29897        3.94452        3.77653
H         -5.78542        3.60556        5.42630
H         -4.60450        4.12550        4.22349
C          3.91430       -1.46165        4.52049
C          3.30366       -2.76576        3.97310
C          4.16507       -3.94993        4.45132
C          1.88076       -2.94105        4.53567
H          4.91382       -1.30522        4.11565
H          3.30733       -0.59770        4.25230
H          3.98978       -1.49128        5.60719
H          3.76475       -4.89690        4.08951
H          5.19354       -3.85287        4.10414
H          4.18829       -3.99590        5.54005
H          1.23183       -2.11654        4.24275
H          1.43519       -3.86736        4.17520
H          1.89573       -2.97961        5.62465
C          3.64420       -5.15173       -1.54171
C          4.68187       -4.38076       -0.70493
C          5.53103       -5.39652        0.08333
C          5.61592       -3.59022       -1.64048
H          3.05366       -4.47489       -2.15821
H          4.13031       -5.86797       -2.20382
H          2.95857       -5.69946       -0.89533
H          4.90645       -6.01788        0.72485
H          6.06671       -6.06102       -0.59455
H          6.27064       -4.89041        0.70356
H          5.05296       -2.92278       -2.29126
H          6.31821       -2.98769       -1.06471
H          6.19053       -4.26288       -2.27702
C          4.98076        4.89282        0.37797
C          3.57930        4.66372       -0.21677
C          2.53937        4.83936        0.90799
C          3.29976        5.71267       -1.30797
H          5.05212        5.87650        0.84169
H          5.20166        4.14389        1.13829
H          5.75173        4.82856       -0.38897
H          2.71486        4.13218        1.71842
H          2.59067        5.84296        1.32962
H          1.52714        4.69022        0.53395
H          4.03436        5.65684       -2.11034
H          2.31406        5.55951       -1.74505
H          3.33176        6.72124       -0.89622
C          6.36551        0.22095       -2.96546
C          5.35824        1.23175       -3.54141
C          6.13308        2.44488       -4.09135
C          4.58798        0.58419       -4.70871
H          5.85665       -0.66500       -2.58860
H          7.07924       -0.09789       -3.72486
H          6.92334        0.66093       -2.13905
H          6.75507        2.89855       -3.32011
H          6.79099        2.14567       -4.90723
H          5.45037        3.20238       -4.47620
H          5.26818        0.29748       -5.51056
H          4.05756       -0.31251       -4.39127
H          3.85803        1.27876       -5.12266
H         -1.34522        0.76689       -5.19546
H          2.05102        2.55876       -4.12520
H         -2.24048        1.18600       -3.73147
H         -2.73445       -0.19806       -4.70020
H          0.55064        2.29663       -5.01509
H          1.31025        0.96233       -4.14107
