58
-89.86839789
P          1.51967        0.29548        0.82835
C          1.55747        2.00365        0.27118
C          1.66307        2.24311       -1.07958
C          1.68479        3.54168       -1.55258
C          1.60726        4.59520       -0.66357
C          1.51506        4.35213        0.69289
C          1.49272        3.05104        1.16207
H          1.42546        2.85165        2.21899
H          1.73370        1.40507       -1.75424
C          3.15782       -0.43470        0.75905
C          4.25844        0.39180        0.76545
C          5.52892       -0.15340        0.71502
C          5.68654       -1.52412        0.65862
C          4.57917       -2.34922        0.65254
C          3.31006       -1.80116        0.70424
H          2.43791       -2.43469        0.68602
H          4.11802        1.46027        0.80542
C          0.88693        0.13507        2.55279
C          0.17824       -1.19744        2.77248
C         -1.30889       -1.17499        2.44855
P         -1.72419       -0.60130        0.74463
C         -3.24741       -1.38540        0.21003
C         -3.31046       -2.75788        0.13620
C         -4.47872       -3.37068       -0.28119
C         -5.57533       -2.60301       -0.62074
C         -5.50703       -1.22580       -0.54557
C         -4.33736       -0.61627       -0.12900
H         -4.26804        0.45774       -0.06951
H         -2.44128       -3.34373        0.39109
C         -1.85196        1.19144        0.60473
C         -1.84794        1.73133       -0.66171
C         -1.90910        3.10228       -0.83096
C         -1.97912        3.92642        0.27379
C         -1.99495        3.38199        1.54237
C         -1.93408        2.01049        1.70744
H         -1.96208        1.58259        2.69528
H         -1.79172        1.07268       -1.51447
Pd         0.11915       -0.81277       -0.65317
Cl         1.89183       -0.90978       -2.03368
Cl        -1.27379       -1.83116       -2.08741
H         -1.74361       -2.17172        2.55639
H         -1.84971       -0.53132        3.14374
H          0.67526       -1.96737        2.16662
H          0.31286       -1.52525        3.81519
H          1.76050        0.24412        3.20079
H          0.22335        0.97094        2.77347
H          1.76179        3.72902       -2.61091
H          1.45691        5.17512        1.38613
H          6.39258        0.49108        0.71711
H          4.70207       -3.41865        0.60277
H         -4.52981       -4.44513       -0.34578
H         -6.36145       -0.62627       -0.81353
H         -1.89509        3.52450       -1.82223
H         -2.05285        4.02578        2.40467
H          1.62101        5.60916       -1.02873
H          6.67547       -1.95069        0.61626
H         -6.48498       -3.07951       -0.94819
H         -2.02031        4.99581        0.14587
