72
-108.40253239
Cl        -1.72881        0.89387        2.70889
Cl         1.03189       -0.79199        2.72768
P          1.07244       -1.14945       -0.29280
P         -2.24455        0.10981       -0.37420
C         -3.23785       -1.48479       -0.09994
C         -3.57574       -1.61411        1.38683
C         -4.51314       -1.45466       -0.93471
C         -3.33047        1.65979       -0.15659
C         -4.15766        1.91619       -1.42301
C         -1.44068        0.38274       -2.05915
C         -1.49792       -0.81371       -2.98460
C          1.13229        0.21007       -1.49264
C         -0.02896        0.94040       -1.99149
C          0.47851        2.01773       -2.84131
C          1.92665        1.93721       -2.85871
C          2.33122        0.79660       -2.05877
C         -2.39082       -2.68748       -0.49140
H         -4.08966       -2.55678        1.58179
H         -2.67551       -1.60060        2.00127
H         -5.19662       -0.67833       -0.59545
H         -5.04340       -2.40534       -0.85837
C         -4.27439        1.54814        1.03689
H         -3.55037        2.30785       -2.23812
H         -4.92986        2.66238       -1.22867
H         -2.05380        1.17147       -2.50458
H         -0.87837       -1.62196       -2.60247
H         -1.10991       -0.56218       -3.97399
H         -2.51372       -1.18587       -3.11674
H         -0.13383        2.70571       -3.42679
H          2.59607        2.58739       -3.42617
Pd        -0.50954       -0.20620        1.19293
H          3.35130        0.46845       -1.84981
C         -2.36725        2.81649        0.06356
H         -4.65404        1.01354       -1.77394
H         -3.73998        1.27815        1.94522
H         -4.76557        2.50413        1.22407
H         -5.06209        0.81828        0.85991
H         -1.61654        2.85754       -0.72688
H         -2.89807        3.77055        0.07408
H         -1.85985        2.71348        1.02132
H         -4.22924       -0.81858        1.73398
H         -4.29652       -1.28181       -1.98810
H         -1.43708       -2.67499        0.03385
H         -2.89513       -3.61830       -0.22685
H         -2.20074       -2.72626       -1.56092
C          2.71871       -1.29609        0.43457
C          3.13851       -2.42914        1.08443
C          4.44303       -2.18931        1.51852
C          4.76391       -0.91739        1.11021
O          3.71393       -0.35845        0.43976
H          2.55400       -3.32439        1.22825
H          5.07303       -2.86820        2.06969
H          5.70706       -0.41523        1.28712
C          0.77718       -2.74912       -1.06769
C          1.14614       -3.02826       -2.35998
C          0.78994       -4.35497       -2.60729
C          0.22471       -4.83144       -1.44947
O          0.21226       -3.85510       -0.49417
H          1.62745       -2.34463       -3.04157
H          0.93616       -4.90055       -3.52519
H         -0.15929       -5.83277       -1.29880
Fe         1.26549        2.15561       -0.91577
C          2.94240        2.83647        0.00077
C          2.13698        2.04739        0.91314
C          0.83728        2.67446        1.01802
C          0.82821        3.84067        0.15429
C          2.13662        3.95160       -0.46500
H          3.98198        2.63497       -0.26852
H          2.44858        1.13755        1.42998
H          0.03714        2.34256        1.68193
H          0.00768        4.55335        0.04409
H          2.46146        4.73981       -1.14810
