171
-217.84623478
P         -1.61047        0.41790       -0.33487
P          1.63082       -0.39840       -0.38591
C         -0.91479        1.37186       -1.68645
C          0.89181       -1.33053       -1.73086
C         -0.12745        0.76208       -2.65621
C          0.47009        1.56614       -3.64520
C          0.22561        2.92952       -3.65048
C         -0.58255        3.51012       -2.69638
C         -1.14345        2.72608       -1.70758
C          1.11713       -2.68504       -1.76892
C          0.51802       -3.46245       -2.74051
C         -0.32775       -2.87546       -3.65730
C         -0.56967       -1.51210       -3.63562
C          0.06921       -0.71362       -2.66689
Cl         1.68750        0.35992        2.75882
Cl        -1.46862       -0.24941        2.90366
C         -1.50165       -0.92434       -4.63720
C          1.33166        0.96789       -4.70104
H         -0.77407        4.57046       -2.71975
H         -1.76601        3.17248       -0.94905
H          1.76340       -3.13754       -1.03386
H          0.70559       -4.52310       -2.77665
H          0.67456        3.53832       -4.41707
H         -0.81405       -3.47947       -4.40476
C         -3.90399       -3.28969       -1.52568
C         -2.90003       -3.39959       -0.57073
C         -2.18423       -2.25450       -0.24903
C         -2.47018       -1.05986       -0.86059
C         -3.46297       -0.96614       -1.80445
C         -4.20592       -2.08756       -2.15485
H         -4.48514       -4.15672       -1.77686
H         -1.40920       -2.28843        0.49761
H         -3.66194       -0.00598       -2.24961
C         -4.38859        2.93569        2.22116
C         -4.92469        1.91327        1.44715
C         -4.05218        1.16702        0.66808
C         -2.70766        1.44130        0.65943
C         -2.19441        2.45637        1.42849
C         -3.02812        3.21973        2.23609
H         -5.04012        3.52474        2.83879
H         -4.42535        0.35313        0.07167
H         -1.13299        2.63374        1.40984
C          4.31194       -3.00956        2.18320
C          2.93919       -3.22083        2.21607
C          2.14030       -2.43422        1.39573
C          2.69816       -1.46205        0.60188
C          4.05544       -1.25873        0.59389
C          4.89363       -2.03029        1.38708
H          4.93759       -3.62301        2.80370
H          1.07130       -2.55857        1.38778
H          4.46476       -0.48252       -0.02813
C          3.95280        3.31852       -1.51547
C          2.92970        3.41542       -0.57970
C          2.21197        2.26513       -0.28308
C          2.51035        1.07544       -0.89912
C          3.52101        0.99630       -1.82581
C          4.27596        2.11969       -2.14240
H          4.51998        4.19752       -1.75294
H          1.42097        2.29432        0.44668
H          3.73209        0.04741       -2.29011
Pd         0.03597        0.04799        1.26239
C         -2.66976       -4.50312        1.66980
C         -2.57225       -4.71626        0.14671
C         -1.14526       -5.15035       -0.22984
C         -3.54708       -5.84197       -0.24831
H         -2.45150       -5.42527        2.20804
H         -1.96828       -3.74419        2.01282
H         -3.67192       -4.17827        1.94856
H         -0.42112       -4.37406        0.01253
H         -0.85813       -6.05880        0.29932
H         -1.07622       -5.34691       -1.29917
H         -3.30987       -6.76266        0.28470
H         -4.57480       -5.57359       -0.00415
H         -3.48896       -6.05602       -1.31533
C         -5.47867       -0.62901       -3.80901
C         -5.38303       -2.01357       -3.13804
C         -6.69027       -2.27357       -2.36724
C         -5.21147       -3.07711       -4.23941
H         -6.30042       -0.60234       -4.52451
H         -5.66086        0.15361       -3.07301
H         -4.56304       -0.38864       -4.34811
H         -6.68628       -3.26143       -1.90770
H         -6.82277       -1.53753       -1.57439
H         -7.55330       -2.21547       -3.03024
H         -4.27085       -2.93770       -4.77067
H         -5.21509       -4.08452       -3.82554
H         -6.02054       -3.01677       -4.96717
C         -6.96267        1.71102        0.00100
C         -6.41999        1.56630        1.43508
C         -7.22857        2.49405        2.36162
C         -6.60484        0.11351        1.91298
H         -6.82021        2.72802       -0.36382
H         -6.45272        1.03571       -0.68487
H         -8.02779        1.48352       -0.03835
H         -6.88996        2.40902        3.39403
H         -7.13700        3.53482        2.05147
H         -8.28713        2.23524        2.33966
H         -7.65984       -0.15888        1.93593
H         -6.09410       -0.58859        1.25480
H         -6.19988       -0.01533        2.91648
C         -2.86825        4.01497        4.60844
C         -2.48552        4.32773        3.14985
C         -3.09187        5.67755        2.72714
C         -0.95004        4.43177        3.06690
H         -2.46938        4.76889        5.28685
H         -3.94925        3.98840        4.73921
H         -2.47070        3.04562        4.90875
H         -2.71308        6.48765        3.35011
H         -2.84192        5.90330        1.69054
H         -4.17769        5.66810        2.81512
H         -0.57705        5.20844        3.73432
H         -0.47734        3.49302        3.35556
H         -0.63067        4.68569        2.05734
C          2.81153       -3.99269        4.60070
C          2.34880       -4.27858        3.15941
C          2.83068       -5.67261        2.72148
C          0.80818       -4.26022        3.13973
H          2.37506       -4.70640        5.29916
H          3.89471       -4.05899        4.69293
H          2.50947       -2.99154        4.90783
H          2.41964       -6.44848        3.36715
H          2.51840       -5.88347        1.69872
H          3.91708       -5.74451        2.76108
H          0.40209       -4.99131        3.83857
H          0.42412       -3.28058        3.42421
H          0.42908       -4.50802        2.15000
C          6.94674       -2.12726       -0.04097
C          6.40718       -1.77478        1.35621
C          7.15179       -2.62736        2.40166
C          6.68117       -0.28878        1.65986
H          8.01982       -1.94724       -0.10336
H          6.76526       -3.17710       -0.27046
H          6.46066       -1.52993       -0.81063
H          6.78681       -2.41943        3.40736
H          7.02931       -3.69158        2.20158
H          8.22013       -2.41188        2.38601
H          6.23231        0.36180        0.91053
H          6.26957       -0.01319        2.63055
H          7.75165       -0.08497        1.67625
C          1.16584        5.16304       -0.26542
C          2.58157        4.72387        0.14441
C          3.56775        5.85361       -0.20870
C          2.63357        4.49324        1.66745
H          0.87094        6.07407        0.25497
H          1.12127        5.35658       -1.33664
H          0.43383        4.39040       -0.03506
H          3.53672        6.08454       -1.27331
H          3.31866        6.76653        0.33218
H          4.58854        5.57941        0.05710
H          2.41305        5.41276        2.20926
H          1.91102        3.74195        1.98273
H          3.62272        4.15105        1.97071
C          6.24709        3.31128       -3.23299
C          5.45118        1.99586       -3.12513
C          4.91747        1.63270       -4.52071
C          6.40865        0.89202       -2.63733
H          6.64241        3.61045       -2.26235
H          7.09161        3.19715       -3.91255
H          5.62392        4.11814       -3.61812
H          5.73384        1.52651       -5.23495
H          4.36878        0.69191       -4.49919
H          4.24846        2.40970       -4.88911
H          6.76210        1.10625       -1.62895
H          5.91667       -0.07939       -2.62388
H          7.27801        0.81275       -3.28981
H         -1.04849       -0.90606       -5.62927
H          0.73740        0.65986       -5.56192
H         -1.78318        0.09596       -4.37365
H         -2.41776       -1.51174       -4.70098
H          1.86386        0.09238       -4.32627
H          2.07406        1.68483       -5.05202
