105
-153.06896672
Cl         0.82262        1.74445        3.46414
Pd         0.06011        1.37433        1.37551
P         -0.87913        0.91612       -0.75518
N          0.10995       -0.08060       -1.81581
C          0.22684       -1.43938       -2.13416
C         -0.18832       -2.50457       -1.29174
C          0.13358       -3.83373       -1.63884
C         -0.14068       -4.94273       -0.65004
C          0.72702       -6.18805       -0.88070
C          0.64929       -6.62412       -2.34686
C          1.14257       -5.50809       -3.28350
C          0.77571       -4.10833       -2.84876
C          1.14230       -3.05272       -3.67384
C          0.89369       -1.75304       -3.31747
H          1.21459       -0.94648       -3.95393
H          1.65360       -3.26754       -4.59710
H          2.23421       -5.56335       -3.37330
H          1.21850       -7.55052       -2.50770
H          1.76859       -5.95714       -0.62440
H          0.00789       -4.56214        0.36836
C         -0.75483       -2.23047        0.04985
C          0.11604       -1.71316        1.03848
C         -0.37792       -1.48990        2.32303
C         -1.67838       -1.79425        2.63352
C         -2.54071       -2.33873        1.68736
C         -3.94038       -2.70481        2.12915
C         -4.85574       -3.28668        1.03286
C         -4.05811       -4.05816       -0.02471
C         -3.00290       -3.13726       -0.64957
C         -2.07880       -2.55659        0.38712
H         -2.43549       -3.65449       -1.43103
H         -4.71968       -4.48326       -0.79265
H         -5.40106       -2.47198        0.54144
H         -4.40533       -1.81627        2.57454
H         -2.04536       -1.61741        3.63031
H          0.27650       -1.06422        3.06274
N          1.44367       -1.42656        0.70567
P          2.04633        0.20375        0.98949
C          3.22644        0.30806        2.32443
C          3.34829       -0.75817        3.18167
C          4.23564       -0.68879        4.24096
C          5.00624        0.44919        4.44119
C          4.85853        1.51934        3.56819
C          3.97069        1.44794        2.50973
H          3.84864        2.27793        1.83190
H          5.43922        2.41205        3.72613
C          5.93982        0.53902        5.59785
H          4.33112       -1.51765        4.92131
H          2.74723       -1.63805        3.01576
C          2.66099        0.94429       -0.52093
C          2.33021        2.24723       -0.81264
C          2.65214        2.77522       -2.04860
C          3.30181        2.00176       -2.99985
C          3.66208        0.70185       -2.67201
C          3.34130        0.17322       -1.43457
H          3.59201       -0.84702       -1.19114
H          4.18360        0.10068       -3.39719
C          3.64011        2.57122       -4.33325
H          2.38243        3.78970       -2.28836
H          1.80076        2.84372       -0.08672
H          1.72811       -1.67196       -0.23216
H          0.90947        0.50412       -2.02954
C         -0.85902        2.54839       -1.51032
C         -1.15822        3.67609       -0.78424
C         -1.11664        4.91818       -1.38752
C         -0.77677        5.04093       -2.72790
C         -0.50565        3.88986       -3.45487
C         -0.54717        2.64851       -2.84590
H         -0.33171        1.75473       -3.40848
H         -0.25855        3.97135       -4.49957
C         -0.74827        6.37704       -3.38451
H         -1.35052        5.80236       -0.81950
H         -1.43298        3.57700        0.25198
C         -2.58147        0.37494       -0.90350
C         -2.97462       -0.04804       -2.15197
C         -4.29585       -0.39217       -2.38230
C         -5.23052       -0.32073       -1.35862
C         -4.81845        0.12427       -0.10944
C         -3.50118        0.47646        0.11219
H         -3.19270        0.86312        1.06723
H         -5.53868        0.20575        0.68661
C         -6.64972       -0.69469       -1.60999
H         -4.60688       -0.72446       -3.35792
H         -2.24220       -0.10500       -2.94220
Cl        -1.90318        2.28149        1.99253
H          0.75902       -5.66944       -4.29902
H          0.43046       -7.00663       -0.20967
H         -0.39075       -6.87345       -2.59271
H         -1.19714       -5.22529       -0.70813
H         -3.55973       -4.91351        0.44804
H         -3.50522       -2.31379       -1.16354
H         -3.85488       -3.42722        2.94990
H         -5.63205       -3.92695        1.47454
H          6.31830       -0.44549        5.87631
H          6.79875        1.16901        5.36244
H          5.43789        0.96517        6.46751
H          4.61627        3.05746       -4.31080
H          3.66798        1.79358       -5.09785
H          2.90133        3.31210       -4.64258
H         -0.02412        6.39941       -4.20015
H         -1.72702        6.62728       -3.79598
H         -0.47129        7.15827       -2.67526
H         -6.71411       -1.65418       -2.12531
H         -7.20973       -0.78083       -0.67782
H         -7.14396        0.05488       -2.22946
