111
-148.55587180
P         -2.16806        2.08038        1.45829
P          0.16865        0.12578        0.61140
C         -1.07451        1.39177        2.72441
C         -0.06266        0.53468        2.35097
C         -2.22394        3.92624        1.55036
C         -1.33062        4.55603        0.50331
C         -1.24039        1.72792        4.05245
H         -2.02174        2.41515        4.33379
C         -0.39835        1.18716        5.00881
H         -0.52791        1.44610        6.04697
C          0.60800        0.31751        4.63389
H          1.26331       -0.10381        5.37836
C          0.77804       -0.00792        3.29986
H          1.56324       -0.67942        2.99065
Pd        -1.43217        1.30494       -0.58702
Cl        -3.18254        2.36679       -1.50037
Cl        -0.51120        0.54640       -2.48437
C         -3.72313        4.22967        1.38153
C         -3.96579        1.69333        1.70031
H         -1.64159        4.26007       -0.50026
H         -1.36693        5.64686        0.55102
H         -0.29090        4.24506        0.63061
H         -3.93596        4.36698        0.31228
H         -3.97714        5.18815        1.85945
H         -4.30515        1.27465        0.74352
C         -4.60315        3.07661        1.94027
C         -4.19325        0.70996        2.82999
H         -1.88972        4.19515        2.56099
H         -4.74389        3.21809        3.02048
H         -5.61391        3.11126        1.50668
H         -5.24784        0.43838        2.91689
H         -3.61745       -0.20549        2.68691
H         -3.88609        1.13717        3.78548
C         -1.29925       -4.08097       -0.34127
C         -2.14651       -3.15370        0.32265
C         -1.63303       -1.90466        0.63389
C         -0.37397       -1.53803        0.23371
C          0.38902       -2.37748       -0.53535
C         -0.05521       -3.64511       -0.86923
O         -1.65937       -5.45127       -0.41141
C         -3.61882       -3.43345        0.66905
H         -2.22225       -1.18997        1.18263
H          1.34238       -2.02729       -0.88854
C          0.82211       -4.49580       -1.80271
C          4.33611        1.05555       -0.98117
C          4.13548       -0.10205       -0.18672
C          2.85990       -0.36137        0.28686
C          1.82454        0.50319        0.04160
C          2.03886        1.67741       -0.63160
C          3.29079        2.00268       -1.12594
O          5.57185        1.24851       -1.65460
C          5.26836       -1.09232        0.12644
H          2.65436       -1.25692        0.84695
H          1.20239        2.33688       -0.78523
C          3.47753        3.34803       -1.84464
C         -3.76890       -3.57060        2.19298
C         -4.48821       -2.25781        0.17098
C         -4.15384       -4.70461       -0.01311
C          1.33878       -3.62093       -2.96739
C          2.02302       -5.04430       -1.01518
C          0.03942       -5.66287       -2.42918
C         -1.23721       -6.18766        0.72391
H         -4.81005       -3.73623        2.46863
H         -3.18443       -4.40814        2.56990
H         -3.42573       -2.67128        2.70269
H         -4.35218       -2.10678       -0.89952
H         -5.54518       -2.45054        0.35248
H         -4.23669       -1.32624        0.67292
H         -5.22213       -4.82596        0.16462
H         -3.99048       -4.66058       -1.08934
H         -3.65471       -5.59428        0.36337
H          0.50918       -3.13521       -3.48035
H          2.02153       -2.84634       -2.62238
H          1.87838       -4.22444       -3.69679
H          2.69001       -5.60995       -1.66528
H          2.59655       -4.23375       -0.56715
H          1.69927       -5.70373       -0.21242
H         -0.27571       -6.37674       -1.67154
H         -0.85305       -5.29815       -2.93648
H          0.64882       -6.20015       -3.15544
H         -1.56581       -7.22232        0.62391
H         -0.15174       -6.16128        0.80307
H         -1.66587       -5.75839        1.62842
C          5.60931        0.70526       -2.96846
C          6.61441       -0.36063        0.27729
C          5.00245       -1.82754        1.45971
C          5.35616       -2.13776       -0.99605
C          2.52356        4.41573       -1.26079
C          4.90993        3.88207       -1.66430
C          3.15696        3.17237       -3.33691
H          7.40746       -1.05299        0.55871
H          6.91147        0.11908       -0.65206
H          6.54836        0.40986        1.04471
H          4.15086       -2.50231        1.38470
H          5.86327       -2.43118        1.74652
H          4.80994       -1.11692        2.26311
H          6.13561       -2.87022       -0.78766
H          4.41167       -2.67023       -1.10120
H          5.58051       -1.67295       -1.95260
H          2.74618        5.39986       -1.67248
H          1.48292        4.19985       -1.49812
H          2.62463        4.47554       -0.17743
H          5.64174        3.22071       -2.12081
H          5.02259        4.86420       -2.12278
H          5.15531        3.97129       -0.60657
H          3.26732        4.11403       -3.87395
H          2.13297        2.82438       -3.47136
H          3.81610        2.44191       -3.79940
H          5.77571        1.50346       -3.69147
H          6.43606       -0.00054       -3.04742
H          4.67177        0.19669       -3.19689
