111
-148.55618326
P         -2.55528        2.08436        0.74612
P          0.14905        0.42272        0.49412
C         -1.48381        1.87084        2.19301
C         -0.29787        1.17839        2.07083
C         -3.36856        3.74544        0.70617
C         -2.76547        4.62035       -0.37113
C         -1.85921        2.38175        3.41882
H         -2.79730        2.90377        3.51378
C         -1.03780        2.20612        4.51918
H         -1.32987        2.60554        5.47667
C          0.15291        1.51671        4.39281
H          0.79109        1.37784        5.24990
C          0.52155        0.99664        3.16515
H          1.44031        0.44233        3.05246
Pd        -1.27198        1.41657       -1.03685
Cl        -2.88540        1.98980       -2.48588
Cl         0.12831        0.77411       -2.67922
C         -4.85377        3.39675        0.49051
C         -4.04292        0.98559        0.77088
H         -2.88168        4.15965       -1.35345
H         -3.24805        5.59990       -0.40708
H         -1.69629        4.77378       -0.20595
H         -5.07346        3.44355       -0.58504
H         -5.49840        4.15740        0.95661
H         -4.12209        0.55839       -0.23790
C         -5.19468        1.97579        1.02406
C         -3.90765       -0.10794        1.80827
H         -3.21905        4.19270        1.69701
H         -5.38671        2.02611        2.10474
H         -6.12736        1.60073        0.57571
H         -3.04892       -0.74833        1.59658
H         -3.76207        0.31722        2.80304
H         -4.79885       -0.73881        1.84306
C         -1.27102       -3.90213        0.30950
C         -1.12765       -3.26775        1.57054
C         -0.66998       -1.96091        1.60080
C         -0.42976       -1.27165        0.44156
C         -0.66903       -1.84661       -0.77822
C         -1.12895       -3.14660       -0.88209
O         -1.51953       -5.29886        0.24241
C         -1.43487       -3.98687        2.89337
H         -0.49139       -1.46084        2.53619
H         -0.48401       -1.25530       -1.65802
C         -1.44573       -3.71085       -2.27554
C          4.55106        0.75167       -0.62240
C          3.82450       -0.42546       -0.93384
C          2.48807       -0.48161       -0.57810
C          1.89269        0.53991        0.11395
C          2.61504        1.63732        0.50371
C          3.96023        1.75276        0.19145
O          5.85143        0.94668       -1.15901
C          4.44080       -1.61321       -1.68887
H          1.88320       -1.32610       -0.85743
H          2.10744        2.41161        1.05267
C          4.74730        2.96541        0.71302
C         -1.87215       -2.97700        3.97895
C         -2.59117       -4.98851        2.72072
C         -0.17314       -4.71424        3.38150
C         -2.55938       -4.77124       -2.20710
C         -1.95131       -2.58837       -3.21185
C         -0.17005       -4.31699       -2.87985
C         -0.34151       -6.09186        0.16647
H         -2.69864       -2.36095        3.62624
H         -2.20346       -3.49596        4.87812
H         -1.05468       -2.32022        4.27267
H         -2.85304       -5.45257        3.67127
H         -3.47734       -4.48805        2.33173
H         -2.32618       -5.78403        2.02852
H          0.15709       -5.45738        2.65978
H          0.64467       -4.00942        3.52992
H         -0.35693       -5.22281        4.32758
H         -2.82688       -5.12361       -3.20296
H         -2.25027       -5.63543       -1.62478
H         -3.45371       -4.35810       -1.74179
H         -2.30327       -3.00152       -4.15669
H         -2.77829       -2.04536       -2.75502
H         -1.16450       -1.87428       -3.44985
H          0.22323       -5.11418       -2.25326
H         -0.36476       -4.72999       -3.86923
H          0.60658       -3.55897       -2.97835
H         -0.33231       -6.80924        0.98700
H         -0.33182       -6.64702       -0.77126
H          0.54653       -5.46109        0.22432
C          5.86144        1.60730       -2.41839
C          5.94141       -1.75503       -1.37706
C          3.76598       -2.93826       -1.26431
C          4.22743       -1.41581       -3.19745
C          4.63631        4.11728       -0.29709
C          4.17796        3.44024        2.06955
C          6.22620        2.60844        0.94972
H          6.50212       -0.88946       -1.72057
H          6.10259       -1.85273       -0.30402
H          6.36158       -2.63422       -1.86489
H          4.28321       -3.79282       -1.69995
H          3.78400       -3.05274       -0.18080
H          2.73045       -2.98966       -1.59668
H          4.63877       -2.25121       -3.76336
H          3.16508       -1.34068       -3.42888
H          4.70617       -0.50402       -3.54676
H          5.17408        4.99765        0.05393
H          5.04800        3.83528       -1.26319
H          3.59412        4.39655       -0.44997
H          4.12533        2.61398        2.77813
H          4.80969        4.21434        2.50462
H          3.18080        3.86455        1.96302
H          6.31245        1.76286        1.63128
H          6.76811        3.44932        1.38186
H          6.72338        2.33987        0.02102
H          4.84432        1.85401       -2.72572
H          6.45195        2.52063       -2.34758
H          6.32030        0.96195       -3.16719
