58
-89.86100717
P          1.65602        0.19633        0.76529
C          2.03171        1.88255        0.28310
C          3.31688        2.24229       -0.05089
C          3.58716        3.54299       -0.43647
C          2.56631        4.47221       -0.48655
C          1.27736        4.10455       -0.15422
C          1.01110        2.80353        0.23122
H          0.00756        2.49934        0.47889
H          4.10058        1.50304       -0.01496
C          3.14326       -0.82376        0.76137
C          3.92256       -0.91276        1.89404
C          5.06236       -1.69705        1.88926
C          5.42086       -2.38604        0.74799
C          4.64622       -2.28630       -0.38978
C          3.50972       -1.50022       -0.37951
H          2.91614       -1.38809       -1.27020
H          3.64616       -0.36459        2.77942
C          0.90590        0.18771        2.44326
C          0.28609       -1.17826        2.73274
C         -1.20981       -1.24217        2.46407
P         -1.71354       -0.62785        0.79699
C         -3.09862       -1.62345        0.24131
C         -4.34775       -1.06220        0.10614
C         -5.40665       -1.83895       -0.32820
C         -5.20487       -3.17268       -0.62441
C         -3.94911       -3.73097       -0.48751
C         -2.89188       -2.95163       -0.05201
H         -1.90274       -3.36998        0.05071
H         -4.48849       -0.01864        0.33682
C         -2.14155        1.12663        0.77799
C         -2.37361        1.69891       -0.45288
C         -2.65840        3.04799       -0.55075
C         -2.71195        3.82010        0.59182
C         -2.48952        3.24380        1.82659
C         -2.20629        1.89351        1.91999
H         -2.04099        1.44190        2.88340
H         -2.31497        1.08139       -1.33552
Pd         0.01019       -0.41068       -0.76488
Cl         1.57251       -0.07620       -2.34344
Cl        -1.55129       -1.06034       -2.25131
H         -1.57827       -2.26749        2.54957
H         -1.76423       -0.65829        3.20019
H          0.80373       -1.93324        2.12247
H          0.48163       -1.47362        3.77590
H          1.69434        0.44742        3.15261
H          0.16381        0.98392        2.50031
H          4.59202        3.82867       -0.70081
H          0.47843        4.82627       -0.19886
H          5.67029       -1.76868        2.77624
H          4.92908       -2.81384       -1.28592
H         -6.38581       -1.40250       -0.43787
H         -3.79054       -4.77040       -0.72344
H         -2.83183        3.49416       -1.51614
H         -2.53608        3.84649        2.71881
H          2.77539        5.48527       -0.78934
H          6.30865       -2.99726        0.74369
H         -6.02841       -3.77842       -0.96583
H         -2.93031        4.87316        0.52023
