105
-153.05852698
Cl         0.34583        3.55207        1.68226
Pd        -0.09871        1.95746        0.15975
P         -0.75585        0.28024       -1.38144
N          0.11907       -1.14373       -1.97512
C          0.20752       -2.46391       -1.53631
C         -0.12106       -2.92234       -0.22878
C          0.20808       -4.24663        0.13864
C          0.09108       -4.67036        1.58532
C         -0.05067       -6.18819        1.76492
C          1.06392       -6.91841        1.00998
C          1.02494       -6.58381       -0.49073
C          0.72143       -5.13761       -0.80711
C          0.95570       -4.68881       -2.09926
C          0.72639       -3.38371       -2.44783
H          0.95855       -3.04794       -3.44380
H          1.34803       -5.37859       -2.82747
H          1.97955       -6.85253       -0.96089
H          2.03555       -6.62161        1.42472
H         -0.05135       -6.46189        2.82954
H          0.98540       -4.32052        2.11494
C         -0.72133       -2.04196        0.81059
C          0.09049       -1.03841        1.39754
C         -0.38025       -0.33445        2.50533
C         -1.62969       -0.58885        3.00702
C         -2.45903       -1.54788        2.43283
C         -3.81366       -1.77639        3.06213
C         -4.73244       -2.74747        2.29945
C         -3.93589       -3.89291        1.66689
C         -2.88147       -3.33542        0.70133
C         -2.00530       -2.28250        1.33301
H         -2.26624       -4.14667        0.29550
H         -4.60255       -4.60245        1.15657
H         -5.26308       -2.20212        1.51002
H         -4.30951       -0.80449        3.18055
H         -1.98780       -0.03410        3.85767
H          0.23683        0.42967        2.94071
N          1.26028       -0.69484        0.72989
P          1.84801        0.91118        0.95303
C          3.05760        1.30090       -0.30803
C          2.98910        0.67022       -1.52814
C          3.89428        0.99564       -2.52038
C          4.87539        1.95161       -2.29505
C          4.92000        2.58532       -1.06017
C          4.01279        2.25955       -0.06814
H          4.03900        2.75334        0.89038
H          5.66670        3.34018       -0.88198
C          5.82977        2.32622       -3.37495
H          3.83755        0.51467       -3.48208
H          2.20517       -0.04375       -1.72118
C          2.60286        0.97376        2.57961
C          3.35771       -0.10728        2.96822
C          3.96759       -0.10969        4.21061
C          3.81867        0.96931        5.07194
C          3.05782        2.05409        4.65732
C          2.45006        2.05224        3.41683
H          1.84485        2.88331        3.09871
H          2.94346        2.89982        5.31370
C          4.49379        0.98125        6.39928
H          4.56364       -0.95192        4.51785
H          3.45883       -0.94682        2.29781
H          1.11845       -0.82341       -0.26997
H          0.27027       -0.98623       -2.96443
C         -0.74039        1.40614       -2.79271
C         -1.87846        1.61616       -3.53501
C         -1.85550        2.49349       -4.60331
C         -0.69211        3.17450       -4.93350
C          0.44958        2.94444       -4.17900
C          0.42177        2.06646       -3.11166
H          1.30603        1.90201       -2.52158
H          1.36104        3.45977       -4.42991
C         -0.66014        4.10495       -6.09570
H         -2.74567        2.65821       -5.18608
H         -2.78786        1.10241       -3.27211
C         -2.47294       -0.16805       -1.12849
C         -3.01651       -1.09663       -1.98431
C         -4.35776       -1.42310       -1.88637
C         -5.15828       -0.83018       -0.92007
C         -4.59087        0.10619       -0.06578
C         -3.25331        0.43864       -0.17329
H         -2.82047        1.18191        0.47547
H         -5.20506        0.58161        0.67965
C         -6.60299       -1.17868       -0.82557
H         -4.78991       -2.14498       -2.55810
H         -2.38716       -1.55975       -2.72800
Cl        -1.80544        3.20066       -0.62308
H          0.27157       -7.20841       -0.98564
H         -1.02500       -6.50985        1.37599
H          0.99549       -8.00363        1.17070
H         -0.74469       -4.15444        2.06968
H         -3.43740       -4.46928        2.45628
H         -3.38021       -2.89594       -0.16758
H         -3.65700       -2.14808        4.08192
H         -5.51822       -3.14051        2.95981
H          5.42643        3.13662       -3.98369
H          6.78276        2.65830       -2.96072
H          6.03212        1.47969       -4.03260
H          3.90376        1.52902        7.13544
H          4.63700       -0.03168        6.77811
H          5.47313        1.45684        6.33129
H          0.07826        4.89419       -5.94775
H         -0.40425        3.57167       -7.01225
H         -1.62942        4.58321       -6.24324
H         -7.04367       -0.80255        0.09871
H         -7.15975       -0.75017       -1.66001
H         -6.74536       -2.26020       -0.84544
