111
-148.55064542
P         -2.39816        2.31327        0.68162
P          0.08742        0.34789        0.42512
C         -1.36326        1.97424        2.12749
C         -0.31263        1.08978        2.02100
C         -2.67209        4.12941        0.47125
C         -2.26144        4.56799       -0.91740
C         -1.64104        2.57293        3.33963
H         -2.45099        3.28054        3.41026
C         -0.87846        2.26267        4.45231
H         -1.09597        2.72794        5.39985
C          0.15355        1.34980        4.35135
H          0.74041        1.09877        5.21957
C          0.43529        0.75963        3.13236
H          1.23043        0.03602        3.04082
Pd        -1.55972        1.04856       -1.06383
Cl        -3.36195        1.70106       -2.23133
Cl        -0.69319       -0.33186       -2.60716
C         -4.17789        4.29672        0.76355
C         -4.15003        1.73597        0.87573
H         -2.40972        5.64115       -1.06000
H         -1.20992        4.34212       -1.11123
H         -2.85344        4.04969       -1.67384
H         -4.57924        5.12184        0.15728
H         -4.32488        4.60074        1.81032
H         -4.29387        0.93156        0.14153
C         -4.96854        2.98579        0.49334
C         -4.42765        1.22665        2.27467
H         -2.05988        4.63365        1.23139
H         -5.92047        2.98538        1.04409
H         -5.24141        2.94010       -0.57127
H         -3.72784        0.43771        2.55910
H         -4.32985        2.03128        3.00471
H         -5.44121        0.82827        2.36209
C         -0.89095       -4.09073        0.61639
C         -1.90566       -3.11997        0.81781
C         -1.54745       -1.78217        0.78697
C         -0.26544       -1.40295        0.48508
C          0.69216       -2.33239        0.17598
C          0.40238       -3.68621        0.19666
O         -1.15622       -5.46259        0.87083
C         -3.37395       -3.49223        1.07538
H         -2.26966       -1.01174        0.99752
H          1.67580       -1.98332       -0.08378
C          1.48695       -4.69222       -0.21917
C          4.40080        1.06605       -0.89566
C          3.44542        0.56813       -1.81691
C          2.15229        0.36360       -1.36907
C          1.77244        0.69856       -0.09567
C          2.66722        1.29109        0.75821
C          3.97940        1.52015        0.37977
O          5.77974        1.08019       -1.23607
C          3.79404        0.23454       -3.27637
H          1.40850       -0.06123       -2.01837
H          2.32788        1.57355        1.73760
C          4.93280        2.21823        1.36260
C         -3.74030       -4.82249        0.39257
C         -3.61491       -3.58903        2.58923
C         -4.31527       -2.41482        0.48975
C          2.30275       -5.10265        1.01563
C          0.86314       -5.93511       -0.87975
C          2.44325       -4.06258       -1.25729
C         -0.91414       -5.85697        2.21534
H         -3.17523       -5.65209        0.80980
H         -4.79881       -5.04907        0.51775
H         -3.52673       -4.77648       -0.67478
H         -2.98118       -4.34906        3.04061
H         -3.39199       -2.63988        3.07621
H         -4.65245       -3.84342        2.80420
H         -4.24084       -1.47620        1.03514
H         -4.08062       -2.22232       -0.55688
H         -5.35515       -2.73546        0.54711
H          2.76947       -4.23203        1.47587
H          1.67194       -5.57539        1.76469
H          3.09061       -5.80587        0.74683
H          0.24416       -5.64768       -1.72902
H          1.63364       -6.61807       -1.23659
H          0.23625       -6.48293       -0.18039
H          3.04803       -3.26967       -0.81957
H          3.13211       -4.80873       -1.65263
H          1.88288       -3.64709       -2.09445
H         -1.84137       -6.20832        2.66750
H         -0.19504       -6.67589        2.23082
H         -0.52340       -5.01850        2.79327
C          6.46834       -0.12198       -0.91510
C          4.90718        1.15717       -3.80526
C          4.23219       -1.23428       -3.37404
C          2.56515        0.44257       -4.19115
C          5.62557        1.16113        2.23576
C          5.98297        3.05790        0.61267
C          4.15705        3.18631        2.28489
H          4.62053        2.20300       -3.70019
H          5.83671        1.01028       -3.26108
H          5.10838        0.96466       -4.85878
H          3.42989       -1.89592       -3.05023
H          4.49170       -1.49708       -4.39922
H          5.09792       -1.43157       -2.74646
H          2.14556        1.43906       -4.05637
H          2.84042        0.33415       -5.23989
H          1.78315       -0.28788       -3.98974
H          6.20415        0.46760        1.63044
H          6.30169        1.62799        2.95157
H          4.89098        0.58083        2.79371
H          5.49905        3.78046       -0.04360
H          6.61830        3.60428        1.30931
H          6.62828        2.43191        0.00132
H          3.55037        3.87693        1.69973
H          4.84395        3.77608        2.89148
H          3.50315        2.65197        2.97260
H          6.88349       -0.55986       -1.82265
H          7.29237        0.09950       -0.23703
H          5.79074       -0.83506       -0.44372
