45
-71.81598179
C          2.30750        1.26687        2.44057
P          1.51804        0.88383        0.84181
P         -1.00603        0.16398       -0.91161
C         -0.34367       -0.34710       -2.53331
Cl         1.48154       -1.92487        2.27205
H          3.00704        2.08969        2.32455
H          0.72586       -0.16182       -2.57058
Cl        -1.27089       -2.69429        0.45854
C          0.46070        2.21209        0.22779
C         -0.62523        1.89146       -0.55770
C         -1.42698        2.88692       -1.07670
C         -1.13450        4.21271       -0.80889
C         -0.04156        4.53499       -0.02754
C          0.76071        3.53309        0.48985
H         -2.27608        2.61929       -1.68505
H         -1.75901        4.99310       -1.21154
H          0.18873        5.56754        0.17747
H          1.62254        3.77375        1.09072
Pd         0.12927       -0.97041        0.75641
H         -0.82629        0.21650       -3.32661
H          2.84567        0.39547        2.80249
H         -0.52093       -1.40751       -2.68869
C         -5.45616       -0.60209       -0.36086
C         -4.71614       -0.01018        0.64340
C         -3.36449        0.22064        0.45798
C         -2.76485       -0.14016       -0.72712
C         -3.49775       -0.73261       -1.73022
C         -4.84928       -0.96379       -1.54739
H         -6.50862       -0.78473       -0.21729
H         -5.18819        0.26880        1.57106
H         -2.77106        0.67932        1.23369
H         -3.01287       -1.01637       -2.65000
H         -5.42657       -1.42901       -2.32946
C          4.47257       -0.36121       -2.37780
C          3.78312        0.82936       -2.50272
C          2.89415        1.21760       -1.51672
C          2.70714        0.41541       -0.41484
C          3.38332       -0.77589       -0.29036
C          4.27345       -1.16661       -1.27344
H          5.16458       -0.66465       -3.14634
H          3.93496        1.45419       -3.36748
H          2.34109        2.13892       -1.60343
H          3.18514       -1.40344        0.56395
H          4.80366       -2.10010       -1.18045
H          1.55068        1.54172        3.16969
