111
-148.55995617
P         -2.49795        2.33182        0.28100
P         -0.04092        0.28241        0.45454
C         -1.69440        2.00258        1.87000
C         -0.64006        1.11773        1.93849
C         -2.86358        4.12955        0.05061
C         -1.91347        4.75181       -0.94934
C         -2.14852        2.62454        3.01511
H         -2.98194        3.30566        2.95602
C         -1.53888        2.36197        4.22986
H         -1.89229        2.84778        5.12468
C         -0.48112        1.47575        4.29657
H         -0.00672        1.26989        5.24195
C         -0.03270        0.84948        3.14737
H          0.79020        0.15277        3.18363
Pd        -1.21812        1.24968       -1.29582
Cl        -2.64346        2.04476       -2.83298
Cl         0.09749        0.03437       -2.64934
C         -4.34113        4.12505       -0.38458
C         -4.20667        1.62988        0.18063
H         -0.87526        4.65993       -0.62089
H         -1.99446        4.25755       -1.91896
H         -2.13008        5.81202       -1.10015
H         -4.38417        4.11635       -1.48249
H         -4.83487        5.05938       -0.07682
H         -4.26421        1.11100       -0.78550
C         -5.09912        2.88534        0.17076
C         -4.47533        0.67417        1.32384
H         -2.75445        4.60089        1.03575
H         -5.43289        3.09041        1.19720
H         -6.01777        2.69675       -0.40528
H         -5.47530        0.23936        1.25558
H         -3.74871       -0.14152        1.33863
H         -4.40364        1.18871        2.28368
C         -1.09337       -4.14926        0.47483
C         -0.01092       -3.67637        1.26403
C          0.29116       -2.32493        1.21839
C         -0.48616       -1.45030        0.50431
C         -1.61765       -1.88200       -0.13816
C         -1.96907       -3.22120       -0.14810
O         -1.24826       -5.53984        0.24113
C          0.83251       -4.57076        2.18887
H          1.15302       -1.94088        1.73803
H         -2.22421       -1.16180       -0.65898
C         -3.27935       -3.61544       -0.85029
C          4.42472        0.89514       -0.21598
C          3.77061       -0.22961       -0.77976
C          2.41150       -0.37559       -0.55891
C          1.72172        0.50521        0.23158
C          2.36757        1.54158        0.85403
C          3.72869        1.73836        0.68794
O          5.76294        1.19692       -0.58417
C          4.49620       -1.25719       -1.66218
H          1.86046       -1.17357       -1.02603
H          1.78768        2.20350        1.47329
C          4.42005        2.86796        1.46804
C          2.24227       -4.73517        1.59790
C          0.94121       -3.90537        3.57855
C          0.20106       -5.95734        2.40316
C         -3.73836       -5.03562       -0.47711
C         -4.40711       -2.65014       -0.42309
C         -3.08805       -3.51823       -2.37306
C         -0.50132       -5.99333       -0.87560
H          2.85986       -5.36873        2.23398
H          2.20410       -5.18752        0.60856
H          2.73895       -3.77018        1.50527
H          1.47366       -2.95685        3.53256
H         -0.04900       -3.71553        3.99181
H          1.47947       -4.54703        4.27570
H          0.76065       -6.53456        3.13886
H         -0.82559       -5.86180        2.75492
H          0.18480       -6.53054        1.47933
H         -3.03735       -5.78418       -0.83871
H         -3.81381       -5.14323        0.60436
H         -4.71259       -5.26039       -0.91058
H         -4.50374       -2.62762        0.66198
H         -4.22289       -1.63473       -0.76938
H         -5.36447       -2.96326       -0.83886
H         -2.31259       -4.20000       -2.71651
H         -4.01007       -3.76586       -2.89826
H         -2.79576       -2.50986       -2.66481
H         -0.64388       -7.06795       -0.99132
H         -0.83615       -5.48670       -1.77922
H          0.55700       -5.78349       -0.72825
C          5.87356        2.06298       -1.70683
C          3.82296       -2.64447       -1.55403
C          4.43399       -0.79768       -3.12677
C          5.95997       -1.43455       -1.22015
C          3.71067        3.10847        2.82061
C          5.88215        2.50750        1.78855
C          4.36157        4.16471        0.64665
H          3.73995       -2.95285       -0.51286
H          2.82688       -2.64671       -1.99407
H          4.40611       -3.39966       -2.08050
H          4.92739       -1.51435       -3.78272
H          3.39934       -0.69615       -3.45369
H          4.91765        0.16713       -3.25829
H          6.45525       -2.20835       -1.80617
H          6.52668       -0.51526       -1.34433
H          6.01146       -1.71928       -0.16976
H          2.71388        3.52568        2.68573
H          3.62044        2.17865        3.38169
H          4.27226        3.81477        3.43166
H          6.35178        3.27954        2.39756
H          5.93423        1.56616        2.33457
H          6.47266        2.39984        0.88224
H          4.86954        4.05057       -0.30788
H          4.83350        4.98786        1.18253
H          3.32852        4.44395        0.44066
H          6.41726        2.96365       -1.42226
H          6.43212        1.56513       -2.49925
H          4.88396        2.33587       -2.07559
