111
-148.55600136
P         -2.57078        2.06261        0.85887
P          0.10094        0.39787        0.50802
C         -1.50467        1.76006        2.29329
C         -0.32431        1.06856        2.12692
C         -3.35692        3.73712        0.91916
C         -2.73047        4.67492       -0.08962
C         -1.87094        2.20441        3.54757
H         -2.80491        2.72640        3.67653
C         -1.04483        1.96281        4.63179
H         -1.32949        2.30994        5.61164
C          0.14172        1.27560        4.46060
H          0.78369        1.08620        5.30508
C          0.50120        0.82269        3.20388
H          1.41650        0.27142        3.05426
Pd        -1.31409        1.47674       -0.98148
Cl        -2.96854        2.19873       -2.30672
Cl         0.12800        0.84179       -2.58788
C         -4.84531        3.42762        0.67082
C         -4.07803        0.99089        0.82491
H         -2.84664        4.28753       -1.10288
H         -3.19594        5.66286       -0.05935
H         -1.66024        4.79751        0.09338
H         -5.05297        3.53662       -0.40259
H         -5.48148        4.17297        1.17194
H         -4.16061        0.61519       -0.20387
C         -5.21476        1.98590        1.12336
C         -3.96302       -0.15398        1.80740
H         -3.21003        4.11444        1.93910
H         -5.41491        1.98067        2.20370
H         -6.14996        1.65237        0.64837
H         -3.11125       -0.79391        1.56765
H         -3.81680        0.21926        2.82272
H         -4.86289       -0.77345        1.80678
C         -1.13283       -3.97249        0.13951
C         -1.10672       -3.36412        1.42341
C         -0.71670       -2.03786        1.51296
C         -0.44556       -1.30435        0.38782
C         -0.59919       -1.85213       -0.85780
C         -0.97971       -3.17131       -1.02267
O         -1.22410       -5.38311        0.02043
C         -1.48992       -4.09178        2.72317
H         -0.60863       -1.56438        2.47333
H         -0.39890       -1.22949       -1.71285
C         -1.21715       -3.67128       -2.45687
C          4.49379        0.77349       -0.63007
C          3.82604       -0.46896       -0.77446
C          2.49088       -0.53754       -0.41747
C          1.84225        0.54115        0.12367
C          2.50804        1.71564        0.35651
C          3.84826        1.85107        0.03024
O          5.79140        0.94942       -1.17999
C          4.50443       -1.72161       -1.35058
H          1.92941       -1.44086       -0.57708
H          1.95880        2.53354        0.79023
C          4.56909        3.16675        0.36374
C         -0.22007       -4.37605        3.54207
C         -2.43780       -3.19868        3.55390
C         -2.23630       -5.41076        2.45739
C          0.13419       -3.81420       -3.17720
C         -1.96581       -5.01451       -2.49222
C         -2.08885       -2.64620       -3.21690
C          0.04487       -6.01604        0.02570
H          0.30515       -3.45150        3.77988
H         -0.46490       -4.87371        4.48006
H          0.46718       -5.01631        2.99229
H         -3.32396       -2.93813        2.97622
H         -2.76645       -3.71527        4.45532
H         -1.95504       -2.27472        3.86779
H         -2.58322       -5.86035        3.38748
H         -3.10184       -5.24027        1.81812
H         -1.59356       -6.13463        1.96200
H         -0.00609       -4.14517       -4.20582
H          0.66507       -2.86299       -3.20084
H          0.77316       -4.53868       -2.67582
H         -2.20788       -5.30265       -3.51492
H         -1.36619       -5.81156       -2.05909
H         -2.89516       -4.95117       -1.92726
H         -1.57851       -1.69265       -3.34158
H         -2.33961       -3.01156       -4.21231
H         -3.01987       -2.46152       -2.68181
H         -0.08924       -7.09169       -0.09045
H          0.65492       -5.63843       -0.79335
H          0.55810       -5.81686        0.96503
C          5.79089        1.41728       -2.52299
C          4.31756       -1.74174       -2.87535
C          6.00188       -1.75495       -0.99622
C          3.87275       -3.00484       -0.76188
C          6.06124        2.92510        0.65627
C          4.41098        4.14434       -0.81064
C          3.96309        3.81392        1.62999
H          4.77040       -2.63102       -3.31298
H          3.25867       -1.73973       -3.13297
H          4.77147       -0.86980       -3.33992
H          6.14186       -1.70147        0.08291
H          6.46899       -2.67213       -1.35408
H          6.53436       -0.91903       -1.44278
H          3.86765       -2.97020        0.32724
H          2.84898       -3.14641       -1.10528
H          4.43528       -3.88731       -1.06586
H          6.18202        2.19883        1.45933
H          6.58097        2.54354       -0.21894
H          6.55634        3.84834        0.95628
H          4.90080        5.09403       -0.59711
H          4.84519        3.73972       -1.72166
H          3.35771        4.34372       -1.00658
H          3.94342        3.10391        2.45645
H          2.94769        4.16695        1.45659
H          4.55169        4.67591        1.94328
H          6.30246        0.69743       -3.16165
H          4.76826        1.55545       -2.87655
H          6.32707        2.36435       -2.58082
