171
-217.84373658
P         -1.60785        0.36104       -0.38064
P          1.65093       -0.41757       -0.39683
C         -0.90880        1.29023       -1.74352
C          0.92000       -1.40714       -1.70498
C         -0.11947        0.64970       -2.69088
C          0.47121        1.42005       -3.70995
C          0.22036        2.78154       -3.76233
C         -0.58975        3.39172       -2.82800
C         -1.14696        2.64082       -1.81155
C          1.14592       -2.76235       -1.69712
C          0.52612       -3.57654       -2.62422
C         -0.33601       -3.02407       -3.54735
C         -0.57417       -1.66018       -3.57610
C          0.08146       -0.82571       -2.64997
Cl         1.60713        0.36138        2.78209
Cl        -1.51250       -0.45805        2.84650
C         -1.53364       -1.11266       -4.57468
C          1.32772        0.78230       -4.74661
H         -0.78635        4.44965       -2.88901
H         -1.77406        3.10831       -1.06944
H          1.80921       -3.18798       -0.96184
H          0.70752       -4.63891       -2.61752
H          0.66447        3.36529       -4.55086
H         -0.84004       -3.65605       -4.25911
C         -3.99985       -3.23879       -1.69802
C         -4.32135       -1.99479       -2.22611
C         -3.55737       -0.90474       -1.82529
C         -2.53128       -1.06946       -0.92763
C         -2.22605       -2.30534       -0.41524
C         -2.95260       -3.42369       -0.80429
H         -4.59514       -4.08835       -1.97755
H         -3.76020        0.08426       -2.20010
H         -1.42099       -2.38540        0.29447
C         -4.19315        2.92309        2.33199
C         -4.79395        1.91653        1.58608
C         -3.98572        1.15728        0.74985
C         -2.64109        1.41553        0.65256
C         -2.06722        2.42404        1.38687
C         -2.83153        3.19136        2.25539
H         -4.80625        3.49933        2.99902
H         -4.39742        0.34339        0.18082
H         -1.00730        2.59629        1.30465
C          4.32025       -2.77513        2.41342
C          2.99142       -3.15603        2.27295
C          2.20726       -2.45112        1.36991
C          2.73067       -1.40043        0.65758
C          4.04251       -1.02905        0.81922
C          4.86888       -1.71743        1.69894
H          4.94651       -3.29992        3.10991
H          1.16836       -2.70491        1.24192
H          4.40937       -0.18029        0.27013
C          3.89614        3.31074       -1.62872
C          2.87386        3.41425       -0.69268
C          2.17115        2.26084       -0.37105
C          2.49728        1.05984       -0.95019
C          3.51768        0.97113       -1.86497
C          4.24257        2.10188       -2.22271
H          4.44403        4.19405       -1.89363
H          1.37014        2.29375        0.34735
H          3.76153        0.00940       -2.28485
Pd         0.01438       -0.02750        1.24308
C         -5.62721       -0.42397       -3.74220
C         -5.52826       -1.84934       -3.16423
C         -6.81334       -2.14913       -2.37154
C         -5.40520       -2.84089       -4.33729
H         -6.46788       -0.34348       -4.43119
H         -5.77990        0.31141       -2.95258
H         -4.72299       -0.15976       -4.29015
H         -7.69566       -2.04369       -3.00256
H         -6.80318       -3.16421       -1.97576
H         -6.91589       -1.46441       -1.53030
H         -6.24495       -2.73532       -5.02400
H         -4.48932       -2.66669       -4.90020
H         -5.39267       -3.87261       -3.98867
C         -2.44196       -5.80444       -1.42020
C         -2.65414       -4.82349       -0.25170
C         -3.84106       -5.28877        0.60997
C         -1.38282       -4.82490        0.61763
H         -3.33863       -5.89652       -2.03157
H         -1.63157       -5.46537       -2.06440
H         -2.18751       -6.79856       -1.05309
H         -3.65525       -6.27727        1.02965
H         -4.01102       -4.59730        1.43509
H         -4.75749       -5.34040        0.02300
H         -1.15796       -5.82992        0.97431
H         -0.52447       -4.47314        0.04626
H         -1.50395       -4.18537        1.49145
C         -7.08383        2.93071        1.40811
C         -6.29826        1.64579        1.72978
C         -6.59417        1.20126        3.17337
C         -6.76928        0.53642        0.76822
H         -8.15781        2.75822        1.47647
H         -6.83236        3.73439        2.09902
H         -6.86095        3.27481        0.39829
H         -7.65363        0.98255        3.30559
H         -6.02940        0.30281        3.42163
H         -6.32051        1.97580        3.88893
H         -7.84202        0.36974        0.86479
H         -6.56862        0.80723       -0.26821
H         -6.26983       -0.40829        0.98252
C         -3.13861        4.96984        4.05233
C         -2.14160        4.25555        3.12023
C         -1.48628        5.30622        2.20720
C         -1.06330        3.57554        3.98641
H         -3.61701        4.26294        4.72995
H         -2.63054        5.71768        4.66110
H         -3.91309        5.48103        3.48083
H         -2.23039        5.78093        1.56792
H         -0.99642        6.08372        2.79314
H         -0.73548        4.85057        1.56506
H         -1.50756        2.80946        4.62140
H         -0.30367        3.09469        3.37158
H         -0.56264        4.30002        4.62825
C          2.01628       -5.45381        2.11883
C          2.36631       -4.30340        3.07816
C          1.08923       -3.79880        3.77953
C          3.32964       -4.83549        4.15659
H          2.91338       -5.83577        1.63194
H          1.54216       -6.27809        2.65130
H          1.33425       -5.11890        1.33937
H          0.64472       -4.58239        4.39264
H          1.31563       -2.95081        4.42547
H          0.33758       -3.47607        3.06108
H          2.85687       -5.62431        4.74161
H          4.23002       -5.25528        3.70864
H          3.62204       -4.04233        4.84452
C          6.48198       -0.81990        3.38937
C          6.32933       -1.30916        1.93803
C          6.76314       -0.17540        0.98920
C          7.24968       -2.52018        1.69572
H          5.82277        0.02682        3.58001
H          6.22847       -1.60637        4.09935
H          7.50564       -0.50433        3.59009
H          6.16623        0.72261        1.14766
H          7.80707        0.09073        1.15440
H          6.66009       -0.48233       -0.05090
H          7.02989       -3.33282        2.38685
H          7.12636       -2.89981        0.68157
H          8.29629       -2.24656        1.82845
C          1.14981        5.21954       -0.57678
C          2.50003        4.74282       -0.01921
C          3.55717        5.83287       -0.28242
C          2.39094        4.53955        1.50556
H          0.37559        4.47285       -0.40753
H          0.83506        6.14969       -0.10402
H          1.21807        5.39196       -1.65056
H          3.30582        6.75077        0.24894
H          4.54190        5.51140        0.05652
H          3.61812        6.07693       -1.34267
H          1.60217        3.83426        1.76153
H          3.32672        4.15455        1.91001
H          2.16672        5.47967        2.00921
C          4.91266        1.42628       -4.54940
C          5.41856        1.97424       -3.20388
C          6.46444        1.01034       -2.61501
C          6.10055        3.33242       -3.46040
H          5.73361        1.31292       -5.25728
H          4.44106        0.45194       -4.42861
H          4.18372        2.10597       -4.98892
H          6.04271        0.01851       -2.45643
H          7.31936        0.90591       -3.28284
H          6.82892        1.38008       -1.65696
H          6.92887        3.22246       -4.16028
H          5.39996        4.04856       -3.88956
H          6.50329        3.75035       -2.53793
H         -2.48232       -1.64726       -4.52640
H          1.92857       -0.02129       -4.31835
H         -1.14356       -1.21369       -5.58847
H         -1.74368       -0.05747       -4.39588
H          2.00805        1.50680       -5.19465
H          0.72109        0.35914       -5.54795
