111
-148.55660084
P         -2.62703        1.84322        1.08626
P          0.18878        0.49574        0.42918
C         -1.46687        1.46282        2.42629
C         -0.22583        0.93912        2.13149
C         -3.56986        3.40209        1.41035
C         -3.03822        4.55566        0.58818
C         -1.82255        1.69400        3.73971
H         -2.80111        2.08447        3.96630
C         -0.92837        1.40792        4.75692
H         -1.20572        1.58827        5.78268
C          0.31731        0.89016        4.45923
H          1.01293        0.66504        5.25084
C          0.66705        0.65055        3.14277
H          1.62877        0.22962        2.89646
Pd        -1.37635        1.66279       -0.83738
Cl        -3.10690        2.49924       -1.98675
Cl         0.01377        1.31398       -2.56967
C         -5.01920        2.99346        1.08808
C         -4.02236        0.63870        0.92090
H         -3.59826        5.47391        0.77982
H         -1.98531        4.74756        0.80805
H         -3.11562        4.34043       -0.47831
H         -5.22630        3.23191        0.03564
H         -5.72831        3.59826        1.67372
H         -4.07362        0.37949       -0.14522
C         -5.25090        1.47397        1.32875
C         -3.79312       -0.59693        1.76376
H         -3.46439        3.61410        2.48180
H         -5.45865        1.30002        2.39352
H         -6.14632        1.12397        0.79295
H         -4.63278       -1.29200        1.69131
H         -2.89081       -1.12584        1.45152
H         -3.67033       -0.33138        2.81537
C         -1.25509       -3.76619       -0.30015
C         -0.94819       -3.34071        1.01759
C         -0.48461       -2.04885        1.19959
C         -0.37871       -1.18080        0.14508
C         -0.75430       -1.56106       -1.11520
C         -1.24480       -2.83007       -1.36556
O         -1.53975       -5.13412       -0.55508
C         -1.08902       -4.26532        2.23664
H         -0.19982       -1.69940        2.17620
H         -0.65264       -0.84198       -1.90861
C         -1.74936       -3.16414       -2.77797
C          4.64694        0.68090       -0.47512
C          4.11124       -0.41316        0.25149
C          2.74641       -0.43776        0.48542
C          1.94372        0.60597        0.10459
C          2.47355        1.71670       -0.49678
C          3.82802        1.79957       -0.77555
O          5.99021        0.63921       -0.93475
C          4.97419       -1.57853        0.76067
H          2.28492       -1.28770        0.95847
H          1.80360        2.51246       -0.77273
C          4.37617        3.07005       -1.44382
C          0.21408       -5.05635        2.42645
C         -1.35780       -3.44711        3.52057
C         -2.27625       -5.22946        2.06178
C         -0.57725       -3.67414       -3.62948
C         -2.87301       -4.21535       -2.73336
C         -2.34080       -1.90426       -3.45287
C         -0.39941       -5.90656       -0.90887
H          1.05656       -4.38095        2.57421
H          0.15009       -5.71187        3.29459
H          0.43184       -5.67157        1.55691
H         -0.49436       -2.84753        3.80522
H         -2.20995       -2.78154        3.38674
H         -1.57865       -4.10662        4.35953
H         -2.41669       -5.84372        2.95083
H         -3.19718       -4.67530        1.88310
H         -2.12153       -5.89994        1.21993
H          0.20709       -2.92038       -3.69483
H         -0.13831       -4.57133       -3.19939
H         -0.90379       -3.91028       -4.64189
H         -3.27400       -4.40298       -3.72908
H         -2.51538       -5.16308       -2.33912
H         -3.68979       -3.87631       -2.09698
H         -3.09025       -1.43772       -2.81396
H         -1.57279       -1.16473       -3.67387
H         -2.81895       -2.15966       -4.39809
H          0.50210       -5.29362       -0.87179
H         -0.29881       -6.74405       -0.21861
H         -0.52476       -6.30781       -1.91429
C          6.14592        0.03439       -2.21253
C          6.39945       -1.10724        1.10208
C          4.37542       -2.17244        2.05668
C          5.02083       -2.68192       -0.30711
C          5.82839        3.34396       -1.01262
C          4.29579        2.91202       -2.96993
C          3.54453        4.30653       -1.03345
H          6.92068       -0.74579        0.21932
H          6.37121       -0.29564        1.82837
H          6.99054       -1.91973        1.52394
H          5.04919       -2.91065        2.49110
H          4.20979       -1.39270        2.79971
H          3.42794       -2.67605        1.87070
H          5.61554       -3.52936        0.03297
H          4.01725       -3.04231       -0.53234
H          5.45636       -2.31616       -1.23384
H          6.19318        4.27931       -1.43632
H          5.90003        3.41207        0.07235
H          6.49655        2.55211       -1.34164
H          4.66302        3.80474       -3.47541
H          4.88717        2.06553       -3.31033
H          3.26615        2.74407       -3.28509
H          4.00596        5.22241       -1.40204
H          3.47108        4.38188        0.05113
H          2.53703        4.26944       -1.44503
H          5.17826       -0.28269       -2.60349
H          6.60045        0.74646       -2.90115
H          6.80618       -0.82889       -2.13147
