111
-148.55161266
P         -1.60776        2.71492       -0.20122
P         -0.51210       -0.17428        0.50191
C         -1.72464        2.09088        1.50429
C         -1.31331        0.80455        1.78828
C         -0.39978        4.10471       -0.32834
C          0.67921        3.77851       -1.33864
C         -2.17589        2.90369        2.52476
H         -2.43893        3.92644        2.31412
C         -2.24947        2.41507        3.81770
H         -2.60700        3.04978        4.61205
C         -1.85599        1.11992        4.09367
H         -1.90686        0.74176        5.10144
C         -1.37312        0.31626        3.07690
H         -1.02148       -0.68284        3.28171
Pd        -1.18705        0.81989       -1.46299
Cl        -1.73184        2.07314       -3.24479
Cl        -0.70282       -1.07116       -2.57208
C         -1.29091        5.30157       -0.72205
C         -3.13422        3.52118       -0.88052
H          0.24113        3.59375       -2.32143
H          1.39342        4.59884       -1.44200
H          1.23465        2.88219       -1.05352
H         -0.71509        5.99524       -1.35212
H         -1.56414        5.87511        0.17602
H         -3.48870        2.86210       -1.68489
C         -2.58610        4.84536       -1.45345
C         -4.22637        3.70510        0.15176
H          0.03369        4.24168        0.67149
H         -3.36176        5.62255       -1.39047
H         -2.37268        4.72608       -2.52599
H         -5.14393        4.08646       -0.30223
H         -4.46371        2.76358        0.65194
H         -3.92373        4.42365        0.91381
C         -0.96138       -4.69067        0.90404
C          0.30594       -4.13342        0.58904
C          0.40285       -2.75761        0.46748
C         -0.67237       -1.94384        0.71176
C         -1.86804       -2.47002        1.12653
C         -2.03243       -3.83736        1.28199
O         -1.17741       -6.08603        0.76739
C          1.58052       -4.96639        0.37062
H          1.33014       -2.30450        0.16373
H         -2.68347       -1.79491        1.32584
C         -3.35953       -4.34003        1.87618
C          3.69482        1.48790       -0.03431
C          3.18839        0.54274       -0.96543
C          1.91322        0.04511       -0.76305
C          1.18753        0.38033        0.34944
C          1.71650        1.20360        1.30844
C          2.98520        1.74098        1.16985
O          4.85617        2.23986       -0.34804
C          3.95682        0.05118       -2.20263
H          1.44184       -0.57005       -1.51064
H          1.11274        1.44922        2.16508
C          3.53423        2.58522        2.33192
C          1.90457       -5.01778       -1.13154
C          2.76259       -4.30909        1.11790
C          1.44361       -6.39760        0.91837
C         -3.27371       -5.80220        2.34779
C         -3.72128       -3.48921        3.11416
C         -4.47570       -4.20248        0.82778
C         -1.62903       -6.44809       -0.52697
H          2.82532       -5.57151       -1.31321
H          1.10653       -5.50166       -1.69083
H          2.03020       -4.01430       -1.53609
H          3.65806       -4.92594        1.04623
H          3.01061       -3.33206        0.70678
H          2.52643       -4.18114        2.17389
H          2.38536       -6.94024        0.83961
H          1.14673       -6.38117        1.96644
H          0.69328       -6.96028        0.36803
H         -4.18989       -6.10645        2.85337
H         -3.12059       -6.47869        1.51038
H         -2.44298       -5.93448        3.04008
H         -4.61790       -3.87270        3.60046
H         -2.91073       -3.50619        3.84223
H         -3.91517       -2.45094        2.85036
H         -5.43298       -4.52915        1.23317
H         -4.58297       -3.16687        0.50679
H         -4.26340       -4.80258       -0.05480
H         -1.77748       -7.52737       -0.56736
H         -2.56927       -5.94645       -0.74907
H         -0.89293       -6.15758       -1.27442
C          4.56446        3.44067       -1.04456
C          3.82654       -1.48461       -2.30927
C          3.35513        0.69313       -3.46428
C          5.45921        0.37152       -2.12404
C          3.29074        1.84266        3.66455
C          5.05045        2.82166        2.22131
C          2.80176        3.93705        2.37022
H          4.42601       -1.86934       -3.13385
H          4.16827       -1.96451       -1.39265
H          2.79717       -1.79032       -2.48782
H          3.86387        0.34032       -4.36089
H          2.29791        0.44731       -3.56015
H          3.44106        1.77742       -3.43501
H          5.88709       -0.01756       -1.20078
H          5.99911       -0.06911       -2.96183
H          5.63560        1.44420       -2.14717
H          3.73437        0.84783        3.63650
H          3.73503        2.38563        4.49838
H          2.22909        1.73225        3.87912
H          5.58038        1.87511        2.12086
H          5.29333        3.43283        1.35558
H          5.43345        3.33425        3.10343
H          2.94407        4.48933        1.44334
H          3.16777        4.55518        3.18954
H          1.73073        3.79511        2.51112
H          4.02373        3.21961       -1.96305
H          3.95111        4.09363       -0.42620
H          5.49699        3.94955       -1.28927
