111
-148.55015078
P         -2.67674        1.92418       -0.29703
P          0.10243        0.54533        0.34331
C         -1.87408        2.19795        1.31051
C         -0.64212        1.63558        1.56453
C         -3.68221        3.40908       -0.76720
C         -3.31720        3.92788       -2.14023
C         -2.49274        2.95715        2.28389
H         -3.46485        3.38079        2.09265
C         -1.86967        3.15639        3.50395
H         -2.35322        3.74914        4.26323
C         -0.63180        2.59471        3.75145
H         -0.14856        2.74730        4.70244
C         -0.01749        1.82652        2.77887
H          0.94040        1.36407        2.95997
Pd        -1.04841        0.93626       -1.62380
Cl        -2.43478        1.21621       -3.35939
Cl         0.66851        0.02720       -2.75109
C         -5.13274        2.89386       -0.65718
C         -3.99977        0.63071       -0.23925
H         -3.54623        3.18469       -2.90471
H         -3.87459        4.83414       -2.38857
H         -2.25094        4.15529       -2.20921
H         -5.76247        3.41162       -1.39535
H         -5.55115        3.15869        0.32498
H         -3.66560       -0.19591       -0.88155
C         -5.21645        1.35361       -0.85224
C         -4.21818        0.14349        1.17654
H         -3.47688        4.17866       -0.01115
H         -6.14167        0.95601       -0.41011
H         -5.27996        1.12790       -1.92701
H         -4.52521        0.96672        1.82427
H         -4.99516       -0.62334        1.22261
H         -3.30189       -0.27915        1.59389
C         -1.33676       -3.71726        1.05246
C         -0.72663       -3.36679       -0.18104
C         -0.30815       -2.05943       -0.35225
C         -0.40569       -1.14298        0.66048
C         -0.87149       -1.51013        1.89553
C         -1.30618       -2.80238        2.13914
O         -2.05019       -4.93774        1.16928
C         -0.49970       -4.34713       -1.34322
H          0.08437       -1.72853       -1.29872
H         -0.90702       -0.76695        2.67330
C         -1.71724       -3.16463        3.57625
C          4.62903        0.93603        0.06174
C          3.80104        2.01339       -0.34577
C          2.42860        1.87457       -0.21368
C          1.87924        0.69989        0.22835
C          2.66940       -0.38187        0.51752
C          4.04791       -0.31055        0.40741
O          6.03474        1.11635        0.15580
C          4.37197        3.32198       -0.91421
H          1.76430        2.68589       -0.45810
H          2.18954       -1.29270        0.83075
C          4.88478       -1.57193        0.67237
C         -0.69452       -5.81361       -0.92171
C         -1.46645       -4.00815       -2.49032
C          0.95357       -4.21129       -1.84869
C         -3.06219       -2.49770        3.90939
C         -1.83146       -4.68445        3.78679
C         -0.64213       -2.65233        4.56000
C         -3.41309       -4.81070        0.79900
H         -0.06755       -6.05319       -0.06358
H         -1.72753       -6.01038       -0.64501
H         -0.43539       -6.49329       -1.73315
H         -1.31335       -4.67470       -3.33855
H         -2.50280       -4.10283       -2.17141
H         -1.31775       -2.98579       -2.83660
H          1.16080       -4.93631       -2.63525
H          1.14949       -3.22223       -2.25928
H          1.65904       -4.38555       -1.03698
H         -3.37369       -2.73678        4.92586
H         -2.99044       -1.41359        3.82869
H         -3.84555       -2.83108        3.23131
H         -2.02712       -4.92290        4.83199
H         -2.64248       -5.10431        3.19648
H         -0.90960       -5.18377        3.49058
H          0.33794       -3.05133        4.29983
H         -0.57504       -1.56567        4.55673
H         -0.87070       -2.96017        5.58004
H         -3.48980       -4.46405       -0.23047
H         -3.90274       -5.78040        0.89081
H         -3.91164       -4.09273        1.44825
C          6.47627        1.56696        1.43011
C          3.37516        3.96525       -1.90509
C          4.62914        4.30779        0.23517
C          5.67455        3.06487       -1.69383
C          6.17472       -1.56950       -0.16807
C          5.22696       -1.65079        2.16763
C          4.09435       -2.84028        0.27671
H          3.82720        4.81881       -2.40971
H          3.07028        3.24848       -2.66723
H          2.48208        4.32938       -1.39956
H          5.02199        5.25208       -0.14091
H          3.70701        4.51716        0.77685
H          5.34649        3.90501        0.94625
H          6.45887        2.68758       -1.04225
H          5.51121        2.32925       -2.48070
H          6.04238        3.98062       -2.15595
H          6.73301       -2.49544       -0.03239
H          5.94167       -1.46557       -1.22725
H          6.82894       -0.74742        0.11124
H          4.31901       -1.68896        2.76913
H          5.81521       -2.54142        2.38718
H          5.79897       -0.78271        2.48694
H          4.72603       -3.72598        0.34039
H          3.72880       -2.76262       -0.74686
H          3.24243       -3.00793        0.93400
H          5.62649        1.71006        2.09874
H          7.15853        0.83465        1.86136
H          7.01355        2.50859        1.31806
