111
-148.55446449
P         -1.44045        2.62807        1.23469
P         -0.32948       -0.25159        0.56119
C         -0.92315        1.52191        2.57923
C         -0.51114        0.23881        2.28644
C         -0.31490        4.08929        1.10787
C          0.48694        4.04094       -0.17567
C         -0.91722        1.96305        3.88707
H         -1.20178        2.97904        4.10674
C         -0.52420        1.10682        4.90126
H         -0.52382        1.44949        5.92313
C         -0.12739       -0.18346        4.60570
H          0.18277       -0.84806        5.39517
C         -0.11041       -0.61586        3.29172
H          0.22914       -1.60809        3.03885
Pd        -1.63766        1.24517       -0.60757
Cl        -2.74451        2.93902       -1.57942
Cl        -1.69875       -0.15411       -2.36136
C         -1.27844        5.28848        1.20880
C         -3.05179        3.48200        1.56089
H          1.11511        3.14908       -0.22109
H         -0.17564        4.01721       -1.04318
H          1.13519        4.91460       -0.27566
H         -1.50305        5.64431        0.19390
H         -0.78694        6.13342        1.71436
H         -3.58263        3.49073        0.59989
C         -2.60664        4.90980        1.92499
C         -3.88681        2.78090        2.61150
H          0.34200        4.04531        1.98632
H         -2.47041        4.97336        3.01330
H         -3.40252        5.63133        1.68483
H         -4.08681        1.74439        2.33039
H         -3.37716        2.76566        3.57510
H         -4.84565        3.28330        2.75797
C         -0.87642       -4.71044       -0.18298
C         -1.91360       -3.96652        0.43601
C         -1.70351       -2.61751        0.67444
C         -0.55114       -2.00029        0.26355
C          0.40770       -2.69195       -0.42931
C          0.25903       -4.04048       -0.70534
O         -0.95961       -6.12673       -0.25299
C         -3.24421       -4.60588        0.86343
H         -2.44029       -2.02565        1.19020
H          1.28277       -2.15867       -0.75677
C          1.32556       -4.75181       -1.55300
C          3.61928        1.40709       -0.99624
C          3.33659        1.44458        0.39327
C          2.15092        0.88456        0.83752
C          1.24062        0.36699       -0.04620
C          1.45907        0.43252       -1.39711
C          2.62166        0.97999       -1.90922
O          4.90803        1.77376       -1.46720
C          4.29634        2.07854        1.41195
H          1.91607        0.85487        1.88675
H          0.67989        0.07938       -2.04971
C          2.77481        1.11340       -3.43233
C         -3.63885       -5.75168       -0.08635
C         -3.11823       -5.12972        2.30192
C         -4.38873       -3.56825        0.81430
C          1.98020       -3.76308       -2.54535
C          2.41767       -5.31603       -0.63210
C          0.70104       -5.88167       -2.39158
C         -0.38454       -6.79793        0.86091
H         -3.68512       -5.39742       -1.11560
H         -2.91982       -6.56609       -0.04623
H         -4.61421       -6.16047        0.17635
H         -4.05305       -5.57796        2.63757
H         -2.33759       -5.88254        2.38032
H         -2.86706       -4.31964        2.98625
H         -5.35229       -4.04643        0.98897
H         -4.27031       -2.80068        1.57759
H         -4.42838       -3.08144       -0.15983
H          2.63586       -4.28799       -3.23972
H          1.22194       -3.24216       -3.12956
H          2.58881       -3.02036       -2.03151
H          2.88242       -4.51869       -0.05253
H          2.00785       -6.03899        0.06898
H          3.19726       -5.81214       -1.20969
H         -0.10233       -5.49479       -3.01761
H          1.44390       -6.34524       -3.04018
H          0.28429       -6.66138       -1.75883
H          0.02492       -6.07739        1.57005
H         -1.14430       -7.40316        1.35509
H          0.40844       -7.46213        0.51768
C          5.81830        0.68613       -1.56658
C          5.30320        1.02172        1.88933
C          5.03809        3.27827        0.79506
C          3.52046        2.61080        2.63854
C          3.63996        2.33311       -3.79795
C          3.40200       -0.17061       -3.99529
C          1.39617        1.32478       -4.10022
H          4.78769        0.17800        2.34759
H          5.89417        0.63873        1.06089
H          5.98840        1.43996        2.62625
H          5.67139        3.76947        1.53335
H          5.67458        2.96834       -0.03029
H          4.32923        4.01253        0.41355
H          3.08871        1.80168        3.22584
H          4.18104        3.16930        3.30131
H          2.71670        3.27794        2.32902
H          3.22458        3.24168       -3.36311
H          4.65716        2.22277       -3.43069
H          3.69246        2.46702       -4.87811
H          3.52762       -0.10280       -5.07557
H          4.37767       -0.35957       -3.55368
H          2.76974       -1.03215       -3.78324
H          1.50999        1.55286       -5.15962
H          0.86255        2.15325       -3.63498
H          0.77256        0.43484       -4.03103
H          6.70479        0.89794       -0.96892
H          5.35193       -0.23430       -1.21286
H          6.12865        0.56105       -2.60373
