111
-148.54923403
P         -2.35382        2.34348       -0.27107
P         -0.00512        0.35932        0.49744
C         -1.78506        2.25231        1.44350
C         -0.79958        1.35088        1.78136
C         -2.42373        4.08141       -0.89473
C         -1.59515        4.21579       -2.15391
C         -2.35820        3.04632        2.41592
H         -3.11128        3.76605        2.13933
C         -1.96104        2.91386        3.73519
H         -2.40979        3.53120        4.49619
C         -0.99916        1.98336        4.07828
H         -0.69871        1.87048        5.10697
C         -0.41838        1.19811        3.09864
H          0.32387        0.45791        3.35402
Pd        -1.15491        0.79199       -1.48730
Cl        -2.58378        1.04853       -3.19631
Cl         0.04989       -0.84535       -2.45051
C         -3.93296        4.32018       -1.11029
C         -4.12520        1.84033       -0.49681
H         -1.62423        5.23494       -2.54708
H         -0.55012        3.95192       -1.97281
H         -1.97173        3.54989       -2.93294
H         -4.07817        5.00756       -1.95639
H         -4.35964        4.83326       -0.23595
H         -4.11072        0.89674       -1.05953
C         -4.69986        2.98918       -1.35000
C         -4.83604        1.65056        0.82614
H         -2.02633        4.72476       -0.09791
H         -5.77044        3.11197       -1.13013
H         -4.64369        2.72491       -2.41627
H         -4.30527        0.94137        1.46395
H         -4.90218        2.59499        1.36807
H         -5.85518        1.28310        0.68482
C         -1.21392       -4.01133        0.78766
C          0.14932       -3.68827        0.56440
C          0.50321       -2.35136        0.50194
C         -0.42319       -1.36501        0.71515
C         -1.71848       -1.67216        1.04238
C         -2.13460       -2.99034        1.13940
O         -1.66773       -5.34310        0.59645
C          1.22666       -4.75419        0.31504
H          1.50727       -2.06191        0.24865
H         -2.41031       -0.86208        1.20005
C         -3.57792       -3.28238        1.57667
C          4.49758        1.10578        0.18997
C          3.82745        0.34818       -0.80273
C          2.45986        0.17833       -0.68209
C          1.76691        0.65826        0.39816
C          2.42917        1.31511        1.40341
C          3.79763        1.52181        1.35074
O          5.85777        1.47258        0.00759
C          4.55217       -0.26065       -2.01396
H          1.90261       -0.32440       -1.45115
H          1.85783        1.68281        2.23541
C          4.49662        2.20654        2.53674
C          2.59641       -4.27663        0.84840
C          0.89639       -6.06811        1.04595
C          1.34302       -5.00452       -1.19642
C         -4.04066       -2.24628        2.62565
C         -4.50286       -3.19823        0.35301
C         -3.69752       -4.66738        2.23837
C         -2.11560       -5.60560       -0.72783
H          2.98076       -3.43137        0.28067
H          2.52194       -3.97977        1.89416
H          3.33771       -5.07231        0.77787
H         -0.01854       -6.51500        0.66533
H          1.69582       -6.79792        0.92031
H          0.76295       -5.89086        2.11257
H          1.59542       -4.08344       -1.72127
H          2.11652       -5.74077       -1.41307
H          0.40463       -5.37090       -1.60672
H         -4.13373       -1.25107        2.19618
H         -5.01685       -2.51319        3.02986
H         -3.33631       -2.19516        3.45555
H         -4.45237       -2.20888       -0.10136
H         -4.21826       -3.92484       -0.40494
H         -5.53869       -3.38925        0.63215
H         -3.00779       -4.75233        3.07744
H         -4.70739       -4.83811        2.61054
H         -3.46742       -5.46475        1.53657
H         -3.16591       -5.89596       -0.71041
H         -1.99540       -4.71832       -1.35099
H         -1.53943       -6.42746       -1.15271
C          6.04163        2.71400       -0.66153
C          4.57289        0.76190       -3.16005
C          5.98718       -0.67977       -1.64687
C          3.82530       -1.53313       -2.50685
C          5.93262        1.67990        2.71293
C          4.51268        3.72592        2.31111
C          3.74704        1.91420        3.85702
H          5.09374        1.67079       -2.86921
H          5.07248        0.35395       -4.03832
H          3.55848        1.03844       -3.44667
H          6.48027       -1.16728       -2.48750
H          6.59163        0.17833       -1.36397
H          5.98069       -1.37481       -0.80784
H          2.84932       -1.30319       -2.93135
H          4.40243       -2.03080       -3.28575
H          3.68717       -2.24104       -1.69091
H          6.40553        2.11748        3.59178
H          5.93202        0.59692        2.83182
H          6.55237        1.92025        1.85280
H          3.49792        4.11178        2.21626
H          4.99257        4.23917        3.14403
H          5.05085        3.98465        1.40259
H          2.77224        2.39899        3.88398
H          4.31123        2.28551        4.71228
H          3.60242        0.84256        3.99181
H          6.61695        2.55609       -1.57359
H          5.07750        3.15857       -0.91138
H          6.60167        3.39523       -0.02116
