105
-153.07141865
Cl         0.44612        3.08319        2.51452
Pd        -0.17169        1.80277        0.76986
P         -0.75499        0.51783       -1.13941
N          0.37089       -0.74615       -1.62014
C          0.52326       -2.12165       -1.40200
C         -0.00437       -2.82404       -0.28593
C          0.36254       -4.16980       -0.07306
C         -0.03710       -4.85045        1.21536
C          0.85980       -6.04425        1.57205
C          0.97703       -6.99419        0.37635
C          1.58323       -6.27816       -0.84274
C          1.16124       -4.83642       -1.00556
C          1.63592       -4.13959       -2.10950
C          1.34368       -2.81318       -2.29186
H          1.74921       -2.28038       -3.13465
H          2.26655       -4.65219       -2.81627
H          2.67752       -6.30874       -0.77650
H          1.56686       -7.88277        0.64201
H          1.85757       -5.67936        1.84622
H         -0.02839       -4.11458        2.02929
C         -0.75075       -2.10630        0.77421
C         -0.02998       -1.20109        1.58882
C         -0.69359       -0.55223        2.62897
C         -2.01861       -0.80414        2.87593
C         -2.73881       -1.71251        2.10688
C         -4.18020       -1.97545        2.48286
C         -4.93638       -2.96568        1.57437
C         -3.99897       -4.02498        0.98367
C         -2.87509       -3.33952        0.19692
C         -2.10390       -2.36622        1.04797
H         -2.20371       -4.07421       -0.26082
H         -4.54867       -4.73749        0.35259
H         -5.41424       -2.41704        0.75381
H         -4.70962       -1.01482        2.51431
H         -2.51780       -0.29653        3.68383
H         -0.14991        0.15605        3.22852
N          1.32206       -0.96701        1.32570
P          1.86646        0.69197        1.09644
C          2.68637        0.88494       -0.48427
C          2.38863        1.97682       -1.26556
C          2.88039        2.05105       -2.55493
C          3.67664        1.03684       -3.06716
C          3.98310       -0.04708       -2.25574
C          3.49398       -0.12001       -0.96383
H          3.71129       -0.97351       -0.34146
H          4.59498       -0.84207       -2.64677
C          4.15302        1.09238       -4.47673
H          2.62848        2.89041       -3.18059
H          1.75301        2.75740       -0.87866
C          2.87174        1.28550        2.44760
C          2.85799        0.59295        3.63377
C          3.60814        1.04877        4.70323
C          4.37788        2.19866        4.58477
C          4.36904        2.88829        3.37917
C          3.61844        2.43065        2.31107
H          3.60378        2.96540        1.37458
H          4.94920        3.79019        3.28389
C          5.16196        2.70877        5.74345
H          3.59660        0.51512        5.63817
H          2.26122       -0.30162        3.71401
H          1.72849       -1.50673        0.57490
H          1.19554       -0.24009       -1.92117
C         -0.64161        1.75020       -2.44477
C         -1.05360        3.04581       -2.24451
C         -0.93719        3.97347       -3.26151
C         -0.40845        3.60916       -4.49234
C         -0.02418        2.28978       -4.68841
C         -0.14138        1.36495       -3.66643
H          0.16132        0.34144       -3.81637
H          0.37072        1.99161       -5.64458
C         -0.29815        4.60305       -5.59557
H         -1.25919        4.98888       -3.10539
H         -1.47450        3.32303       -1.29313
C         -2.41821       -0.13442       -1.28411
C         -2.63689       -1.00998       -2.32218
C         -3.91291       -1.48802       -2.56771
C         -4.97751       -1.09546       -1.76832
C         -4.73991       -0.19962       -0.73417
C         -3.46685        0.28346       -0.50083
H         -3.29261        1.01364        0.26946
H         -5.56086        0.12825       -0.11968
C         -6.34581       -1.62113       -2.03037
H         -4.08753       -2.17521       -3.37783
H         -1.80432       -1.31402       -2.93739
Cl        -2.18999        2.78311        0.73589
H          1.33272       -6.82062       -1.76328
H          0.48211       -6.57178        2.45939
H         -0.02065       -7.37175        0.11870
H         -1.07462       -5.19200        1.13740
H         -3.56343       -4.61909        1.79659
H         -3.30910       -2.79256       -0.64394
H         -4.19561       -2.34693        3.51464
H         -5.76198       -3.44201        2.12134
H          4.36034        2.11929       -4.78097
H          5.07032        0.51654       -4.60693
H          3.40093        0.68605       -5.15459
H          5.48432        1.89233        6.39119
H          6.05516        3.23976        5.41136
H          4.56387        3.39731        6.34184
H         -0.14250        5.60952       -5.20460
H          0.54119        4.37027       -6.25244
H         -1.20623        4.61320       -6.19986
H         -7.04555       -1.31728       -1.25064
H         -6.72680       -1.25231       -2.98365
H         -6.34273       -2.71153       -2.06739
