111
-148.55554367
P         -1.50566        2.67352        1.04771
P         -0.43220       -0.24754        0.52829
C         -1.15786        1.57966        2.45385
C         -0.75396        0.28164        2.22204
C         -0.33927        4.10725        1.01274
C          0.56531        4.03001       -0.19885
C         -1.26734        2.04435        3.74876
H         -1.54907        3.06984        3.92355
C         -0.99323        1.19808        4.80940
H         -1.08201        1.55916        5.82101
C         -0.60014       -0.10570        4.57375
H         -0.38125       -0.76209        5.39982
C         -0.47038       -0.56292        3.27459
H         -0.13278       -1.56700        3.07114
Pd        -1.59356        1.26725       -0.77622
Cl        -2.41281        2.95372       -2.00362
Cl        -1.56535       -0.25058       -2.43460
C         -1.27740        5.33124        1.02241
C         -3.12077        3.56812        1.17947
H          1.16574        3.11829       -0.19115
H         -0.02275        4.02356       -1.11878
H          1.24606        4.88331       -0.24489
H         -1.38363        5.69960       -0.00716
H         -0.82029        6.15959        1.58445
H         -3.53403        3.58378        0.16208
C         -2.68405        4.98582        1.59017
C         -4.08686        2.89269        2.12937
H          0.23966        4.05243        1.94399
H         -2.66554        5.04854        2.68691
H         -3.43197        5.72532        1.26528
H         -4.28406        1.86190        1.82604
H         -3.68671        2.86395        3.14326
H         -5.04124        3.42261        2.16962
C         -0.79683       -4.74120       -0.10112
C         -1.93749       -3.91499       -0.27060
C         -1.80598       -2.55596       -0.03508
C         -0.58857       -2.00988        0.27512
C          0.53801       -2.78821        0.33528
C          0.47597       -4.15395        0.11397
O         -0.93404       -6.15487       -0.11566
C         -3.30376       -4.47247       -0.70007
H         -2.65571       -1.89844       -0.10140
H          1.47591       -2.30753        0.55511
C          1.77662       -4.97251        0.12019
C          3.62344        1.38266       -0.74303
C          3.25929        1.40178        0.62802
C          2.02109        0.89586        0.98529
C          1.19617        0.32670        0.05174
C          1.58075        0.22251       -1.25793
C          2.80721        0.70255       -1.68291
O          4.78217        2.07827       -1.18004
C          4.16099        2.00137        1.71791
H          1.67368        0.95969        2.00122
H          0.87920       -0.20247       -1.95487
C          3.20146        0.52419       -3.15651
C         -3.13805       -5.69157       -1.62576
C         -4.11136       -4.86111        0.54723
C         -4.09871       -3.41067       -1.49419
C          2.96590       -4.10888       -0.35995
C          2.06603       -5.45711        1.54868
C          1.68021       -6.17335       -0.83840
C         -1.19555       -6.72464        1.16060
H         -2.65657       -6.51876       -1.11007
H         -4.10402       -6.04515       -1.98537
H         -2.52675       -5.43568       -2.49052
H         -3.59846       -5.62534        1.12626
H         -4.25897       -3.99751        1.19526
H         -5.09198       -5.24870        0.27224
H         -4.40527       -2.57938       -0.86124
H         -3.50188       -3.01411       -2.31521
H         -5.00580       -3.84186       -1.91697
H          3.86187       -4.71723       -0.48121
H          2.74426       -3.64477       -1.32058
H          3.20845       -3.32228        0.35300
H          2.16774       -4.61189        2.22904
H          1.26167       -6.08677        1.92154
H          2.98993       -6.03373        1.58577
H          2.62472       -6.71486       -0.88487
H          0.91420       -6.87554       -0.51889
H          1.42955       -5.84095       -1.84522
H         -2.13876       -7.26986        1.13085
H         -0.40356       -7.42836        1.41613
H         -1.24932       -5.94526        1.92176
C          4.54230        3.42951       -1.55428
C          5.64909        1.80288        1.37776
C          3.84589        3.49715        1.87217
C          3.91249        1.30502        3.07558
C          4.72740        0.39754       -3.31331
C          2.58157       -0.77025       -3.73160
C          2.67863        1.71957       -3.96780
H          5.92344        2.33489        0.47034
H          6.28720        2.17083        2.18083
H          5.87010        0.74697        1.22546
H          4.47020        3.95034        2.64173
H          4.01524        4.03462        0.94235
H          2.80373        3.64379        2.15445
H          2.92444        1.53442        3.47214
H          4.00126        0.22328        2.97838
H          4.63869        1.63507        3.81808
H          5.23617        1.30520       -2.99906
H          5.10786       -0.42467       -2.70811
H          5.00035        0.20946       -4.35138
H          1.49768       -0.69973       -3.80847
H          2.96037       -0.96844       -4.73394
H          2.82582       -1.62799       -3.10569
H          3.10423        2.65474       -3.61205
H          1.59470        1.79651       -3.88409
H          2.92935        1.61513       -5.02303
H          3.48746        3.67764       -1.43240
H          5.14556        4.09323       -0.93517
H          4.83216        3.57855       -2.59426
