111
-148.54815210
P         -2.69270        1.90631       -0.40437
P          0.03540        0.50038        0.31973
C         -1.95721        2.16651        1.23463
C         -0.73047        1.60620        1.51671
C         -3.61779        3.41193       -0.96147
C         -2.80858        4.28701       -1.89333
C         -2.60383        2.91781        2.19589
H         -3.57374        3.33630        1.98492
C         -2.01174        3.11391        3.43177
H         -2.51659        3.70061        4.18185
C         -0.77707        2.55800        3.70668
H         -0.31805        2.70862        4.66990
C         -0.13606        1.79589        2.74670
H          0.81761        1.33427        2.95061
Pd        -1.05116        0.89146       -1.69135
Cl        -2.02456        1.69454       -3.53702
Cl         0.62161       -0.24604       -2.67589
C         -4.89463        2.80621       -1.56993
C         -4.05985        0.65546       -0.44667
H         -1.87359        4.60455       -1.42606
H         -2.55215        3.75287       -2.80766
H         -3.36432        5.18156       -2.18342
H         -4.71359        2.59680       -2.63338
H         -5.71692        3.53771       -1.54652
H         -3.80303       -0.04792       -1.25012
C         -5.29412        1.49097       -0.84069
C         -4.18424       -0.06519        0.87808
H         -3.87061        3.96876       -0.05056
H         -5.85894        1.73648        0.06900
H         -5.97981        0.89288       -1.45960
H         -4.37141        0.64266        1.68776
H         -5.00678       -0.78414        0.86694
H         -3.26737       -0.60581        1.12129
C         -1.25544       -3.76900        1.26243
C         -0.62690       -3.47627        0.02538
C         -0.26226       -2.16604       -0.22790
C         -0.42725       -1.18688        0.71445
C         -0.93053       -1.48730        1.95306
C         -1.32304       -2.77599        2.27289
O         -1.85188       -5.04051        1.47376
C         -0.37273       -4.54098       -1.05251
H          0.14162       -1.88037       -1.18254
H         -1.03079       -0.69078        2.66861
C         -1.84785       -3.06745        3.68745
C          4.55060        1.00616        0.04313
C          3.69333        1.99257       -0.50865
C          2.32470        1.82426       -0.37300
C          1.80824        0.69702        0.20956
C          2.62923       -0.31002        0.64523
C          4.00619       -0.20462        0.54210
O          5.94829        1.24499        0.12563
C          4.22680        3.23435       -1.24000
H          1.63751        2.57366       -0.72727
H          2.17479       -1.18929        1.06755
C          4.88147       -1.38987        0.97895
C         -0.11935       -5.92185       -0.42122
C         -1.58099       -4.60242       -1.99912
C          0.88446       -4.18760       -1.87985
C         -1.18090       -2.13047        4.72034
C         -3.36604       -2.83491        3.72543
C         -1.52067       -4.51004        4.11390
C         -3.21283       -5.11484        1.06749
H          0.71085       -5.87497        0.28278
H         -0.99339       -6.27863        0.11771
H          0.12300       -6.66249       -1.18293
H         -1.74672       -3.63583       -2.47446
H         -1.42516       -5.34226       -2.78377
H         -2.48912       -4.86716       -1.46281
H          1.14093       -4.99941       -2.56000
H          0.73149       -3.29777       -2.48846
H          1.74002       -4.01430       -1.22812
H         -1.45156       -2.41924        5.73571
H         -0.09511       -2.17353        4.63829
H         -1.49458       -1.09590        4.58878
H         -3.76716       -3.03752        4.71813
H         -3.60450       -1.80268        3.47042
H         -3.88175       -3.47841        3.01672
H         -0.44920       -4.69594        4.04778
H         -1.83475       -4.69609        5.14065
H         -2.02452       -5.23527        3.47987
H         -3.32556       -5.88496        0.30461
H         -3.83458       -5.38708        1.92022
H         -3.54386       -4.15552        0.66748
C          6.35704        1.87888        1.33100
C          3.22181        3.70467       -2.31644
C          4.43397        4.37205       -0.22919
C          5.54795        2.92340       -1.96688
C          6.18007       -1.45444        0.15445
C          5.20928       -1.25646        2.47352
C          4.13899       -2.72671        0.75136
H          2.95080        2.88257       -2.97847
H          2.31041        4.10144       -1.87182
H          3.65144        4.49862       -2.92683
H          5.15499        4.09305        0.53549
H          4.79901        5.27190       -0.72361
H          3.49780        4.61778        0.27159
H          6.33526        2.66184       -1.26419
H          5.42018        2.08619       -2.65225
H          5.89141        3.78334       -2.54130
H          6.80251       -0.57962        0.32514
H          6.76817       -2.33340        0.41718
H          5.95572       -1.50186       -0.91063
H          5.75060       -0.33549        2.67714
H          4.29631       -1.24277        3.06843
H          5.82239       -2.09018        2.81480
H          4.79929       -3.57315        0.93870
H          3.78421       -2.80023       -0.27620
H          3.28476       -2.83458        1.41810
H          7.05945        1.23684        1.86216
H          6.86189        2.81613        1.09743
H          5.49423        2.07881        1.96759
