115
-277.93513854
P         -1.78052       -0.07876       -0.15396
P          1.71469       -0.74172        0.54865
C         -1.57505        1.69903       -0.41939
C         -2.68977        2.50178       -0.31611
H         -3.66878        2.05559       -0.23185
C         -2.53933        3.86898       -0.21514
H         -3.38849        4.49642        0.00245
C         -1.27652        4.43834       -0.25442
C         -0.18021        3.63451       -0.52314
H          0.79488        4.09647       -0.59349
C         -0.32998        2.26494       -0.59793
H          0.53821        1.64122       -0.72488
C         -3.22017       -0.67352       -1.05642
C         -3.73029        0.01270       -2.13445
H         -3.25269        0.92015       -2.46710
C         -4.83932       -0.47439       -2.79676
H         -5.26252        0.05187       -3.63795
C         -5.43600       -1.65018       -2.38530
C         -4.91368       -2.33260       -1.30316
H         -5.39478       -3.24237       -0.98161
C         -3.80573       -1.84665       -0.64146
H         -3.40105       -2.37616        0.20591
C         -1.86217       -0.66708        1.57444
C         -1.23398       -1.88949        1.74016
H         -0.73461       -2.34302        0.90021
C         -1.08219       -2.46524        3.00220
C         -1.79235       -1.90082        4.05539
H         -1.72448       -2.34476        5.03454
C         -2.44012       -0.69245        3.89505
H         -2.87823       -0.21088        4.75271
C         -2.38733        0.00169        2.68689
C          1.17322       -0.30842        2.24395
C          0.49659        0.89419        2.25157
H          0.31571        1.39656        1.31994
C         -0.11740        1.38622        3.40067
C          0.16059        0.74775        4.60266
H         -0.26899        1.12696        5.51479
C          0.84263       -0.45236        4.61090
H          0.94084       -0.99543        5.53565
C          1.25568       -1.06055        3.42502
C         -2.58259        1.49969        2.73767
H         -3.45608        1.72533        3.35932
H         -2.85817        1.84744        1.74507
C         -1.32057        2.28065        3.26469
H         -1.06914        3.11932        2.60629
H         -1.53068        2.74458        4.23458
C          0.09283       -3.36554        3.28681
H          0.18691       -4.11137        2.49074
H         -0.11529       -3.95288        4.18816
C          1.43401       -2.56189        3.45627
H          1.93122       -2.84490        4.39183
H          2.14975       -2.86116        2.69513
C          2.65961       -2.26597        0.64155
C          2.05540       -3.46185        0.31727
C          3.87798       -2.24586        1.28761
C          2.62088       -4.64739        0.73921
C          4.43110       -3.43306        1.72851
C          3.77067       -4.63430        1.51175
C          2.78552        0.55767       -0.09484
C          3.12866        0.56847       -1.42626
C          3.14900        1.60479        0.72184
C          3.79003        1.65307       -1.95831
H          2.84457       -0.25619       -2.05832
C          3.81134        2.69216        0.19071
H          2.87775        1.59431        1.76468
C          4.11761        2.73079       -1.15612
H          4.00792        1.70063       -3.01303
H          4.04320        3.55435        0.79681
Pd         0.13537       -0.96140       -1.19285
Cl        -1.19900       -1.12097       -2.99185
Cl         1.79207       -2.08486       -2.22213
H          5.31336       -3.42617        2.34786
H          4.33362       -1.30162        1.54260
H          2.11123       -5.58712        0.59246
H          1.10643       -3.46840       -0.19414
C         -2.20810        6.78337        0.01386
C         -1.04158        5.80554        0.33955
C         -0.85999        5.57466        1.87267
F         -1.87162        8.01744        0.42079
F         -2.39348        6.76901       -1.31465
F         -3.32684        6.37727        0.62995
F          0.08671        6.33688       -0.13710
F          0.21048        4.78459        2.03733
F         -0.67961        6.74879        2.49233
F         -1.93917        4.94011        2.34962
C         -6.61372       -3.66282       -3.33468
C         -6.69254       -2.13051       -3.06611
C         -7.91106       -1.74729       -2.17803
F         -6.63043       -4.32521       -2.16966
F         -7.65336       -4.03051       -4.09936
F         -5.46051       -3.90312       -3.97645
F         -6.83820       -1.51944       -4.24501
F         -7.75447       -2.28368       -0.95885
F         -7.93297       -0.40925       -2.08345
F         -9.04004       -2.19129       -2.75037
C          5.58326        3.78491       -2.92889
C          4.59067        4.02932       -1.75478
C          3.31783        4.81151       -2.19261
F          6.56021        2.98648       -2.47336
F          4.94579        3.18603       -3.94430
F          6.09408        4.96145       -3.32414
F          5.22371        4.75727       -0.83088
F          2.56782        4.98901       -1.09557
F          3.67212        5.99269       -2.71977
F          2.63308        4.07600       -3.08033
C          5.52648       -5.93207        2.80557
C          4.03134       -5.83682        2.38502
C          3.06540       -5.69539        3.60561
F          5.83896       -4.90089        3.60234
F          5.73003       -7.09566        3.44252
F          6.26713       -5.88069        1.68857
F          3.71232       -6.95764        1.73332
F          1.81169       -5.71934        3.13180
F          3.26353       -6.70692        4.46128
F          3.27961       -4.51450        4.20066
