111
-148.56097000
P         -2.49887        2.34397        0.21325
P         -0.05974        0.33372        0.44773
C         -1.71287        2.07465        1.81960
C         -0.66348        1.18797        1.91848
C         -2.86881        4.12862       -0.09713
C         -1.92170        4.70166       -1.12905
C         -2.17622        2.72613        2.94437
H         -3.00568        3.40938        2.85996
C         -1.58058        2.48817        4.17106
H         -1.94050        2.99633        5.05074
C         -0.53002        1.59603        4.26962
H         -0.06816        1.40802        5.22487
C         -0.07243        0.94117        3.14015
H          0.74375        0.23851        3.20176
Pd        -1.21616        1.24940       -1.34831
Cl        -2.64944        1.81654       -2.97560
Cl         0.13694        0.09321       -2.71827
C         -4.34637        4.10296       -0.53227
C         -4.20525        1.63294        0.13158
H         -2.14100        5.75243       -1.33289
H         -0.88265        4.62888       -0.79846
H         -2.00388        4.15826       -2.07227
H         -4.38894        4.05241       -1.62908
H         -4.84281        5.04705       -0.26085
H         -4.25634        1.07650       -0.81378
C         -5.10187        2.88376        0.06894
C         -4.47807        0.72267        1.31044
H         -2.75834        4.64541        0.86480
H         -5.44015        3.12808        1.08525
H         -6.01776        2.66915       -0.50238
H         -3.74785       -0.08809        1.36391
H         -4.41599        1.27585        2.24919
H         -5.47564        0.28088        1.25276
C         -1.09787       -4.09996        0.51392
C          0.00243       -3.61844        1.27246
C          0.29394       -2.26530        1.21547
C         -0.50682       -1.39765        0.51909
C         -1.65185       -1.83755       -0.09298
C         -1.99537       -3.17899       -0.08865
O         -1.25049       -5.49232        0.28935
C          0.88060       -4.50500        2.17209
H          1.16769       -1.87439        1.70965
H         -2.27430       -1.12244       -0.60197
C         -3.32114       -3.58454       -0.75450
C          4.43728        0.82776       -0.12687
C          3.74509       -0.22073       -0.78388
C          2.37788       -0.32424       -0.59163
C          1.71131        0.52551        0.25111
C          2.39054        1.48429        0.95703
C          3.76174        1.63154        0.82707
O          5.79539        1.09199       -0.44828
C          4.44164       -1.20924       -1.73186
H          1.80268       -1.06522       -1.11955
H          1.83038        2.12275        1.61717
C          4.48804        2.66135        1.70744
C          1.03089       -3.83491        3.55567
C          0.26429       -5.89439        2.41062
C          2.27157       -4.66291        1.53612
C         -4.44336       -2.62451       -0.30215
C         -3.17096       -3.49275       -2.28221
C         -3.76140       -5.00578       -0.36294
C         -0.53257       -5.94566       -0.84638
H          1.59387       -4.47226        4.23708
H          1.55783       -2.88447        3.49001
H          0.05365       -3.64788        3.99991
H          0.85054       -6.46619        3.12961
H         -0.75105       -5.80352        2.79493
H          0.22166       -6.47054        1.48948
H          2.91472       -5.28683        2.15620
H          2.20459       -5.12342        0.55213
H          2.75750       -3.69492        1.41960
H         -5.40958       -2.94646       -0.68972
H         -4.51040       -2.59595        0.78502
H         -4.27532       -1.61034       -0.65984
H         -2.89411       -2.48354       -2.58592
H         -2.39989       -4.17027       -2.64340
H         -4.10476       -3.74942       -2.78162
H         -4.74592       -5.23802       -0.76830
H         -3.06639       -5.75197       -0.74064
H         -3.80628       -5.10918        0.72065
H         -0.66322       -7.02322       -0.94792
H         -0.90287       -5.45246       -1.74351
H          0.52670       -5.71950       -0.73450
C          5.97055        2.04173       -1.49223
C          5.88152       -1.49796       -1.27083
C          3.69642       -2.56346       -1.75773
C          4.44383       -0.62840       -3.15412
C          5.92575        2.20838        2.02106
C          4.50410        4.02160        0.99409
C          3.76413        2.82432        3.06400
H          5.88871       -1.87267       -0.24781
H          6.35508       -2.24376       -1.90880
H          6.49557       -0.60139       -1.30183
H          3.56390       -2.95170       -0.74886
H          2.71635       -2.47644       -2.22442
H          4.25726       -3.30273       -2.32912
H          4.98105        0.31591       -3.19385
H          4.91665       -1.31476       -3.85602
H          3.42522       -0.44423       -3.49505
H          6.52876        2.14640        1.11876
H          6.41766        2.90606        2.69837
H          5.92428        1.22475        2.48956
H          3.48884        4.36545        0.79761
H          5.00416        4.77522        1.60193
H          5.02271        3.96116        0.04038
H          3.62128        1.85729        3.54567
H          2.78996        3.29703        2.94832
H          4.34509        3.45183        3.73951
H          6.54050        2.89333       -1.12121
H          6.53175        1.58748       -2.30865
H          5.00295        2.38383       -1.86160
