75
-122.81677715
P          1.82518       -0.58192        0.04176
C          3.12795       -1.31987       -0.95679
C          4.41535       -1.31415       -0.46978
C          5.43088       -1.90310       -1.20139
C          5.14681       -2.50400       -2.41147
C          3.85080       -2.52376       -2.88702
C          2.83782       -1.93469       -2.15295
H          1.82153       -1.94855       -2.51225
H          3.62772       -2.99617       -3.82954
H          5.93706       -2.96197       -2.98370
H          6.44054       -1.89559       -0.82483
H          4.61794       -0.86233        0.48871
C          1.72306       -1.56467        1.54579
C          1.52059       -0.96904        2.76951
C          1.53257       -1.73447        3.92047
C          1.74299       -3.09645        3.83771
C          1.93729       -3.69328        2.60789
C          1.92935       -2.92277        1.45897
H          2.09754       -3.37231        0.49307
H          2.09816       -4.75674        2.54220
H          1.74797       -3.69555        4.73361
H          1.37001       -1.26894        4.87860
H          1.33892        0.09132        2.81778
C          2.20370        1.13280        0.44674
C          3.35687        1.78423        0.07577
C          3.52153        3.13616        0.34311
C          2.49450        3.82181        0.99105
C          1.32619        3.18664        1.34901
C          1.17644        1.81704        1.07951
O         -0.01114        1.13844        1.40020
C         -1.20205        1.81698        1.09357
C         -1.35423        3.18326        1.37868
C         -2.53373        3.81509        1.05245
C         -3.56846        3.13184        0.41457
C         -3.39660        1.78663        0.11877
C         -2.23138        1.13931        0.45753
P         -1.84664       -0.55495       -0.01604
C         -1.67712       -1.60028        1.43326
C         -1.80393       -1.07247        2.69753
C         -1.75585       -1.90751        3.79848
C         -1.58266       -3.26630        3.62343
C         -1.45389       -3.79099        2.35256
C         -1.50409       -2.95325        1.25275
H         -1.42134       -3.34819        0.25222
H         -1.31491       -4.85082        2.21640
H         -1.54086       -3.91788        4.48089
H         -1.84977       -1.49712        4.79038
H         -1.93589       -0.00960        2.81704
C         -3.17320       -1.26214       -1.00486
C         -4.42803       -1.34778       -0.44563
C         -5.46725       -1.90576       -1.16838
C         -5.23897       -2.38230       -2.44392
C         -3.97530       -2.30715       -2.99515
C         -2.93867       -1.74909       -2.27004
H         -1.94832       -1.68481       -2.69060
H         -3.79619       -2.68061       -3.99000
H         -6.04770       -2.81604       -3.00918
H         -6.45163       -1.97020       -0.73470
H         -4.58639       -0.98632        0.55856
Pd         0.01541        0.00184       -1.36772
Cl        -1.55622        0.95952       -2.68207
Cl         1.56568        0.77749       -2.81080
H         -4.16938        1.25162       -0.40415
C         -4.83811        3.82532        0.06937
H         -5.57082        3.71300        0.86947
H         -5.27144        3.41725       -0.84472
H         -4.67366        4.89169       -0.09031
H         -2.64777        4.85972        1.28236
S         -0.00695        4.05455        2.13594
H          2.60609        4.86990        1.20575
C          4.77880        3.83186       -0.04080
H          4.12600        1.24803       -0.45079
H          5.15065        3.46620       -0.99888
H          4.62228        4.90713       -0.13540
H          5.55568        3.66882        0.70722
