171
-217.84447407
P         -1.63296        0.43062       -0.37308
P          1.58730       -0.39118       -0.37198
C         -0.90162        1.39799       -1.69792
C          0.87435       -1.32299       -1.72666
C         -0.08557        0.79770       -2.65073
C          0.57261        1.61638       -3.58926
C          0.35819        2.98434       -3.56420
C         -0.48090        3.55619       -2.63170
C         -1.10231        2.75718       -1.69254
C          1.09123       -2.67774       -1.78017
C          0.52109       -3.43083       -2.78780
C         -0.28058       -2.81825       -3.72788
C         -0.51056       -1.45262       -3.68999
C          0.09411       -0.68050       -2.68035
Cl         1.54117        0.43082        2.83964
Cl        -1.56721       -0.25957        2.86237
C         -1.36141       -0.81499       -4.73146
C          1.50975        1.04786       -4.59732
H         -0.64265        4.62174       -2.62693
H         -1.74588        3.19785       -0.94863
H          1.71153       -3.14676       -1.03333
H          0.70064       -4.49237       -2.83723
H          0.86367        3.60429       -4.28545
H         -0.73515       -3.40353       -4.50930
C         -3.92379       -3.29839       -1.51625
C         -2.89219       -3.39637       -0.58996
C         -2.17334       -2.24527       -0.29721
C         -2.48916       -1.05217       -0.89838
C         -3.51516       -0.97002       -1.80749
C         -4.26229       -2.09688       -2.12930
H         -4.48549       -4.17971       -1.75785
H         -1.36714       -2.27406        0.41543
H         -3.74675       -0.01543       -2.25004
C         -4.33427        2.85370        2.35551
C         -4.87977        1.80050        1.63050
C         -4.04151        1.09912        0.77446
C         -2.71631        1.43628        0.65645
C         -2.19375        2.47676        1.38365
C         -2.99216        3.20242        2.25757
H         -4.96748        3.40951        3.01957
H         -4.42269        0.27003        0.20466
H         -1.14667        2.70940        1.28662
C          4.22649       -2.94368        2.30106
C          2.86120       -3.20516        2.26250
C          2.07570       -2.44166        1.40913
C          2.63365       -1.44395        0.64889
C          3.98129       -1.19264        0.70891
C          4.80920       -1.94306        1.53169
H          4.84866       -3.52513        2.95364
H          1.01301       -2.60861        1.35845
H          4.39176       -0.38992        0.12208
C          4.01114        3.17928       -1.70711
C          2.97488        3.37744       -0.80327
C          2.23505        2.26917       -0.41097
C          2.51517        1.03101       -0.93183
C          3.52828        0.85375       -1.84152
C          4.30625        1.93263       -2.24475
H          4.62034        4.01946       -1.98481
H          1.44078        2.35863        0.30959
H          3.71245       -0.13715       -2.22107
Pd        -0.01301        0.03773        1.26309
C         -1.18786       -5.21920       -0.46095
C         -2.52578       -4.71663        0.10363
C         -3.59842       -5.79885       -0.12725
C         -2.39617       -4.48703        1.62307
H         -0.40305       -4.47885       -0.31412
H         -0.87844       -6.14446        0.02473
H         -1.27073       -5.40988       -1.53060
H         -3.35155       -6.70973        0.41811
H         -4.57539       -5.45965        0.21683
H         -3.67444       -6.06165       -1.18203
H         -2.17931       -5.42091        2.14136
H         -1.59456       -3.78859        1.85717
H         -3.32176       -4.08152        2.03095
C         -6.20478       -3.30646       -3.25130
C         -5.44875       -1.97225       -3.09774
C         -4.93812       -1.54023       -4.48261
C         -6.43369       -0.91784       -2.55895
H         -6.59302       -3.64967       -2.29246
H         -7.05131       -3.19492       -3.92878
H         -5.55660       -4.08083       -3.66112
H         -5.76304       -1.43496       -5.18708
H         -4.42005       -0.58345       -4.43078
H         -4.24686       -2.28074       -4.88362
H         -5.96782        0.06503       -2.50248
H         -7.30754       -0.83349       -3.20476
H         -6.77684       -1.18708       -1.56016
C         -7.08004        2.16347        2.86073
C         -6.35581        1.39201        1.74057
C         -6.44929       -0.11461        2.05355
C         -7.05769        1.68805        0.40396
H         -8.11560        1.83505        2.94892
H         -6.59701        1.99881        3.82376
H         -7.09277        3.23407        2.65771
H         -7.48691       -0.42260        2.18099
H         -6.02287       -0.71731        1.25274
H         -5.91153       -0.34997        2.97173
H         -8.10755        1.39771        0.43985
H         -7.00765        2.75118        0.16942
H         -6.58622        1.14468       -0.41333
C         -1.11399        3.82257        3.80481
C         -2.36857        4.34277        3.07439
C         -3.34738        4.89051        4.13092
C         -1.98099        5.48580        2.12080
H         -0.67646        4.59963        4.43113
H         -1.36475        2.97503        4.44227
H         -0.34805        3.49479        3.10390
H         -4.22879        5.32844        3.66313
H         -3.67082        4.10138        4.80954
H         -2.87408        5.66911        4.72907
H         -1.50833        6.30507        2.66225
H         -1.28536        5.13951        1.35845
H         -2.86124        5.87846        1.61214
C          3.20807       -4.97694        4.05987
C          2.18952       -4.25948        3.15379
C          1.49882       -5.31009        2.26703
C          1.14283       -3.56628        4.04778
H          2.71232       -5.71769        4.68720
H          3.96132       -5.49723        3.46853
H          3.71161       -4.27063        4.71963
H          0.72971       -4.85287        1.64810
H          2.21891       -5.79161        1.60574
H          1.02408       -6.08241        2.87196
H          0.36895       -3.08292        3.45295
H          0.65599       -4.28327        4.70837
H          1.61170       -2.80024        4.66485
C          6.50096       -0.16284        2.03121
C          6.30970       -1.62092        1.57218
C          6.90433       -1.80108        0.16292
C          7.06663       -2.54433        2.54554
H          6.05736       -0.00837        3.01456
H          7.55886        0.09160        2.09306
H          6.03071        0.53583        1.34007
H          7.97321       -1.58837        0.15974
H          6.76168       -2.82315       -0.18738
H          6.42979       -1.13316       -0.55479
H          8.12950       -2.30326        2.55928
H          6.69083       -2.43443        3.56262
H          6.96939       -3.58910        2.25095
C          2.50967        5.77250       -1.39992
C          2.70466        4.77846       -0.23946
C          3.90193        5.21332        0.62365
C          1.43455        4.79811        0.63188
H          2.27400        6.76818       -1.02459
H          3.40735        5.85307       -2.01140
H          1.69251        5.45361       -2.04596
H          4.05899        4.51257        1.44350
H          4.81833        5.25033        0.03549
H          3.73690        6.20235        1.05069
H          1.22807        5.80520        0.99380
H          0.56927        4.46451        0.06003
H          1.54496        4.15243        1.50264
C          6.80068        1.99216       -2.38047
C          5.50819        1.76607       -3.18529
C          5.42679        2.79328       -4.33109
C          5.55252        0.35469       -3.80361
H          7.68092        1.87016       -3.01138
H          6.82778        2.99528       -1.95590
H          6.87234        1.28037       -1.55830
H          4.49946        2.67840       -4.89084
H          5.46740        3.81497       -3.95625
H          6.25609        2.66511       -5.02661
H          5.68358       -0.40820       -3.03669
H          4.63632        0.13840       -4.35251
H          6.38592        0.26366       -4.50007
H         -1.91990        0.02738       -4.32064
H          1.09521        1.12410       -5.60350
H         -2.08061       -1.52528       -5.13989
H         -0.75458       -0.44616       -5.55908
H          1.72647       -0.00241       -4.39843
H          2.45813        1.58549       -4.58501
