111
-148.55596263
P         -2.19405        2.12844        1.41056
P          0.14949        0.17289        0.60417
C         -1.13028        1.43310        2.69663
C         -0.11734        0.56853        2.34412
C         -2.27298        3.97172        1.52981
C         -1.37011        4.62664        0.50646
C         -1.32906        1.76484        4.02136
H         -2.11343        2.45570        4.28510
C         -0.51831        1.21230        4.99753
H         -0.67312        1.46771        6.03310
C          0.48749        0.33310        4.64509
H          1.11746       -0.09966        5.40475
C          0.68921        0.01168        3.31467
H          1.47135       -0.67211        3.02823
Pd        -1.41874        1.37236       -0.62712
Cl        -3.12124        2.48680       -1.56720
Cl        -0.51179        0.53992       -2.49953
C         -3.77301        4.25988        1.34104
C         -3.99049        1.71526        1.61132
H         -0.32953        4.32177        0.64230
H         -1.66453        4.34549       -0.50626
H         -1.41635        5.71617        0.57223
H         -3.96960        4.41384        0.27096
H         -4.04678        5.20653        1.83146
H         -4.30735        1.30925        0.64148
C         -4.64860        3.08656        1.86416
C         -4.22281        0.70927        2.72060
H         -1.95804        4.22960        2.54942
H         -4.80975        3.20732        2.94404
H         -5.65206        3.11687        1.41362
H         -3.94342        1.12700        3.68879
H         -5.27381        0.41742        2.78166
H         -3.62653       -0.19344        2.57655
C         -1.28649       -4.02930       -0.40788
C         -2.19744       -3.06193        0.09025
C         -1.70377       -1.81339        0.43352
C         -0.39238       -1.48600        0.20315
C          0.45455       -2.37065       -0.41217
C          0.03222       -3.64239       -0.75779
O         -1.67317       -5.39157       -0.51376
C         -3.69986       -3.33900        0.25592
H         -2.34395       -1.06876        0.87361
H          1.45750       -2.05103       -0.62922
C          1.00411       -4.58772       -1.48041
C          4.38144        0.93100       -0.91705
C          4.15854       -0.07679        0.05842
C          2.86235       -0.28632        0.49976
C          1.82886        0.50745        0.07200
C          2.06594        1.56825       -0.76306
C          3.33573        1.83236       -1.24814
O          5.61370        0.98371       -1.61788
C          5.27388       -0.94608        0.66430
H          2.64623       -1.09694        1.17432
H          1.23470        2.18357       -1.06199
C          3.52114        3.08082       -2.12648
C         -4.18084       -4.44161       -0.70523
C         -3.98196       -3.74687        1.70947
C         -4.51696       -2.07116       -0.08152
C          1.78704       -5.40405       -0.44140
C          0.24773       -5.53151       -2.43288
C          2.00776       -3.78603       -2.34044
C         -1.46938       -6.13682        0.67984
H         -3.71365       -5.39688       -0.48070
H         -5.25967       -4.57883       -0.63618
H         -3.93646       -4.18495       -1.73546
H         -5.04303       -3.94283        1.86157
H         -3.43056       -4.64568        1.97809
H         -3.68256       -2.95661        2.39744
H         -4.35308       -1.27873        0.64488
H         -4.24898       -1.68951       -1.06641
H         -5.58506       -2.28698       -0.08408
H          1.11952       -6.01620        0.16073
H          2.50512       -6.06573       -0.92515
H          2.33452       -4.74629        0.23321
H          0.93943       -6.15874       -2.99463
H         -0.42390       -6.18953       -1.88653
H         -0.34831       -4.96110       -3.14446
H          2.61310       -4.45401       -2.95272
H          1.48510       -3.10133       -3.00788
H          2.69451       -3.20687       -1.72542
H         -0.94183       -5.53280        1.41913
H         -2.42964       -6.44973        1.08896
H         -0.88434       -7.02868        0.45494
C          5.61911        0.16932       -2.77874
C          5.11824       -0.97994        2.20084
C          5.16275       -2.37868        0.11640
C          6.67752       -0.38972        0.36822
C          2.89706        2.82701       -3.50900
C          2.81155        4.28452       -1.46699
C          5.00148        3.46588       -2.29082
H          5.93984       -1.52705        2.66253
H          5.11559        0.03034        2.60907
H          4.19351       -1.46805        2.50377
H          4.19580       -2.81564        0.36301
H          5.26928       -2.39586       -0.96656
H          5.93644       -3.01855        0.53992
H          6.90215       -0.43061       -0.69487
H          6.75368        0.64961        0.68582
H          7.44500       -0.96191        0.88895
H          3.38599        1.99719       -4.01533
H          1.83896        2.58275       -3.41952
H          2.98612        3.70764       -4.14447
H          1.73251        4.14603       -1.42521
H          3.17271        4.43386       -0.44986
H          2.99815        5.20000       -2.02780
H          5.54846        2.70356       -2.84050
H          5.47823        3.58311       -1.31828
H          5.10538        4.40352       -2.83632
H          4.83616        0.49010       -3.46377
H          6.58727        0.25362       -3.27279
H          5.44220       -0.87022       -2.50772
