58
-89.86965093
P          1.66179        0.33107        0.77180
C          3.06700        1.31697        0.24734
C          4.22220        0.70080       -0.17625
C          5.29726        1.46604       -0.59077
C          5.20523        2.84393       -0.57901
C          4.04295        3.45752       -0.15480
C          2.96941        2.68938        0.25995
H          2.05125        3.15374        0.58408
H          4.27589       -0.37582       -0.18656
C          1.92636       -1.40975        0.40011
C          1.86893       -1.79814       -0.91949
C          2.03646       -3.12775       -1.25826
C          2.26799       -4.06199       -0.26872
C          2.34370       -3.66713        1.05243
C          2.17712       -2.33549        1.38716
H          2.25849       -2.01766        2.41331
H          1.69612       -1.05074       -1.67799
C          1.38506        0.65293        2.55821
C          0.22098       -0.11463        3.15905
C         -1.14341        0.39032        2.72447
P         -1.58030        0.00960        0.98111
C         -1.53433       -1.75005        0.60698
C         -1.45049       -2.70379        1.59562
C         -1.38793       -4.04247        1.25357
C         -1.41966       -4.41819       -0.07496
C         -1.52398       -3.45993       -1.06318
C         -1.58442       -2.12283       -0.71751
H         -1.67375       -1.35840       -1.47359
H         -1.45071       -2.40569        2.63084
C         -3.21621        0.68244        0.67427
C         -4.26174       -0.15787        0.36697
C         -5.51716        0.36795        0.12096
C         -5.71467        1.73331        0.18337
C         -4.66179        2.57271        0.49020
C         -3.40718        2.04364        0.73642
H         -2.57261        2.68723        0.96653
H         -4.09033       -1.22087        0.31534
Pd        -0.11707        0.79965       -0.63777
Cl         1.33901        1.34766       -2.25865
Cl        -1.87947        1.14579       -1.98768
H         -1.94102       -0.04437        3.33202
H         -1.21016        1.47284        2.84708
H          0.31486       -1.17713        2.90615
H          0.28871       -0.07235        4.25743
H          2.32608        0.40379        3.05485
H          1.24153        1.72830        2.67794
H          6.20252        0.98700       -0.92584
H          3.96923        4.53259       -0.15112
H          1.98222       -3.43239       -2.29041
H          2.53207       -4.39614        1.82340
H         -1.31393       -4.79181        2.02450
H         -1.55412       -3.75086       -2.10025
H         -6.33755       -0.28694       -0.12265
H         -4.81469        3.63854        0.53321
H          6.04084        3.44159       -0.90502
H          2.39346       -5.10055       -0.52814
H         -1.36655       -5.46136       -0.34068
H         -6.69161        2.14491       -0.01130
