111
-148.55332669
P         -2.50990        2.31780        0.40809
P         -0.02158        0.32878        0.49589
C         -1.78649        1.84434        1.99807
C         -0.73995        0.94905        2.03177
C         -2.74270        4.14717        0.28309
C         -2.04118        4.68204       -0.94629
C         -2.29701        2.35335        3.17491
H         -3.10189        3.06936        3.13984
C         -1.77130        1.94440        4.38828
H         -2.17100        2.33964        5.30786
C         -0.74145        1.02413        4.42135
H         -0.33737        0.69833        5.36569
C         -0.22558        0.52395        3.23923
H          0.57622       -0.19810        3.24865
Pd        -1.31409        1.21619       -1.22979
Cl        -2.83899        1.89405       -2.72556
Cl        -0.11508       -0.11107       -2.59406
C         -4.27715        4.30778        0.24870
C         -4.26067        1.74668        0.19517
H         -2.44685        4.22210       -1.84938
H         -2.16590        5.76346       -1.04132
H         -0.97036        4.46527       -0.91942
H         -4.54091        5.17616       -0.37239
H         -4.65217        4.54037        1.25619
H         -4.24650        0.98350       -0.59503
C         -4.98086        3.02539       -0.27819
C         -4.82357        1.16970        1.47713
H         -2.31506        4.58715        1.19430
H         -6.03191        2.99772        0.04453
H         -5.00751        3.05187       -1.37754
H         -4.88827        1.93734        2.24960
H         -5.82966        0.77007        1.32942
H         -4.19228        0.36700        1.86448
C         -0.98476       -4.07257       -0.13451
C          0.36441       -3.67745        0.05488
C          0.63234       -2.33314        0.24732
C         -0.38057       -1.41441        0.32281
C         -1.69221       -1.80267        0.24379
C         -2.03098       -3.13144        0.04615
O         -1.28467       -5.40224       -0.53431
C          1.53633       -4.67055        0.00731
H          1.64562       -1.98083        0.32350
H         -2.45195       -1.04358        0.31896
C         -3.51607       -3.52003       -0.02212
C          4.49264        0.97535        0.26437
C          3.77494        1.47894        1.37906
C          2.40581        1.27553        1.42522
C          1.74101        0.66892        0.39031
C          2.41900        0.29387       -0.74000
C          3.78807        0.45913       -0.85193
O          5.91284        0.95682        0.28000
C          4.46388        2.20009        2.54840
H          1.83916        1.58437        2.28455
H          1.85148       -0.13490       -1.54576
C          4.48650        0.04629       -2.15696
C          2.02086       -4.81551       -1.44341
C          2.71746       -4.16652        0.86869
C          1.12234       -6.04170        0.57108
C         -3.99775       -3.42415       -1.47810
C         -3.74446       -4.94038        0.52540
C         -4.37268       -2.56298        0.83709
C         -1.32044       -5.59294       -1.94325
H          2.32029       -3.84892       -1.84719
H          2.87625       -5.48785       -1.50452
H          1.23737       -5.21085       -2.08460
H          2.38685       -3.92892        1.87946
H          3.49494       -4.92672        0.94128
H          3.17988       -3.27832        0.44043
H          1.96783       -6.72890        0.59042
H          0.74436       -5.93996        1.58782
H          0.34068       -6.49891       -0.03037
H         -3.86411       -2.41259       -1.86119
H         -3.44016       -4.09694       -2.12452
H         -5.05420       -3.67892       -1.55779
H         -4.80466       -5.19221        0.53142
H         -3.23331       -5.68624       -0.07786
H         -3.37037       -5.02267        1.54533
H         -3.97624       -2.48821        1.84938
H         -4.40930       -1.56465        0.40462
H         -5.40070       -2.91819        0.90506
H         -1.09094       -4.65965       -2.45916
H         -0.59522       -6.35522       -2.22743
H         -2.30957       -5.94039       -2.24084
C          6.47128       -0.23390        0.82132
C          5.69596        2.98747        2.06641
C          3.50492        3.22161        3.20153
C          4.87614        1.16840        3.60936
C          3.53429        0.21530       -3.36318
C          5.71771        0.92895       -2.43011
C          4.90105       -1.43012       -2.06570
H          6.14603        3.55017        2.88390
H          6.45861        2.32478        1.66513
H          5.41882        3.69113        1.28218
H          2.68007        2.73027        3.71551
H          4.02888        3.82442        3.94297
H          3.09045        3.89714        2.45367
H          5.35811        1.65257        4.45833
H          4.00548        0.62699        3.97886
H          5.57036        0.43819        3.20060
H          3.11423        1.22037       -3.38803
H          4.06441        0.05079       -4.30090
H          2.71249       -0.49848       -3.33221
H          6.17612        0.67725       -3.38613
H          5.43707        1.98136       -2.45488
H          6.47454        0.80406       -1.65978
H          5.58883       -1.59743       -1.24043
H          5.39001       -1.75618       -2.98330
H          4.02991       -2.06393       -1.90408
H          7.09275        0.01227        1.68211
H          5.68104       -0.92066        1.12741
H          7.10190       -0.71483        0.07377
