171
-217.83929349
P         -1.50799        0.07849       -0.05289
P          1.74899       -0.51406       -0.14421
C         -0.88139        1.32714       -1.19352
C          0.95740       -1.23454       -1.59812
C         -0.10780        0.91868       -2.27244
C          0.40605        1.88971       -3.15356
C          0.08248        3.22120       -2.94812
C         -0.70083        3.60696       -1.88029
C         -1.17776        2.65420       -1.00232
C          1.15192       -2.58763       -1.74321
C          0.55379       -3.26990       -2.78475
C         -0.25739       -2.58847       -3.66623
C         -0.47961       -1.22862       -3.52846
C          0.14808       -0.52909       -2.48038
Cl         1.46431       -1.65916        2.93516
Cl        -1.62468       -2.35615        2.22518
C         -1.39692       -0.54851       -4.48335
C          1.27208        1.50482       -4.30187
H         -0.93602        4.64772       -1.72816
H         -1.78683        2.94717       -0.16516
H          1.77155       -3.11131       -1.02996
H          0.71473       -4.32920       -2.90086
H          0.44708        3.96044       -3.64070
H         -0.74065       -3.11648       -4.47107
C         -4.38689       -2.58363       -2.33105
C         -3.51020       -3.17373       -1.42845
C         -2.63806       -2.34624       -0.73624
C         -2.63278       -0.99253       -0.95384
C         -3.49248       -0.42782       -1.86452
C         -4.39693       -1.21459       -2.56869
H         -5.09596       -3.19856       -2.85210
H         -1.97375       -2.75981        0.00077
H         -3.44242        0.63371       -2.03287
C         -4.07395        2.18631        3.07724
C         -3.01433        1.40661        3.52368
C         -2.22523        0.77393        2.57414
C         -2.49104        0.89856        1.23102
C         -3.56067        1.65370        0.81538
C         -4.36444        2.32593        1.72607
H         -4.69098        2.68839        3.79709
H         -1.40724        0.16110        2.90366
H         -3.77275        1.72855       -0.23688
C          2.40110        3.95904        0.21989
C          3.05709        3.25084       -0.77871
C          2.79691        1.89058       -0.88585
C          1.92824        1.27303       -0.01988
C          1.30756        1.98598        0.97954
C          1.53093        3.35006        1.11691
H          2.59519        5.01132        0.30762
H          3.28619        1.29614       -1.63698
H          0.65866        1.47645        1.66956
C          5.99693       -2.09757       -0.06571
C          5.27791       -2.08901        1.12396
C          3.97271       -1.62154        1.08708
C          3.41366       -1.19003       -0.08753
C          4.13530       -1.21108       -1.25606
C          5.44870       -1.66499       -1.26722
H          7.01200       -2.44768       -0.06469
H          3.37668       -1.60344        1.98104
H          3.66039       -0.87293       -2.16142
Pd         0.01547       -1.10217        1.32256
C         -4.51319       -5.43881       -2.01614
C         -3.48950       -4.68259       -1.14824
C         -3.82718       -4.92569        0.33464
C         -2.08566       -5.23511       -1.45649
H         -5.52849       -5.10024       -1.81058
H         -4.30825       -5.29636       -3.07708
H         -4.47589       -6.50909       -1.81344
H         -4.80778       -4.51729        0.57780
H         -3.83791       -5.99114        0.56325
H         -3.09724       -4.45179        0.98981
H         -1.32749       -4.75957       -0.83531
H         -2.03963       -6.30868       -1.27509
H         -1.82443       -5.05721       -2.49930
C         -5.15413        0.88689       -3.78981
C         -5.44079       -0.60312       -3.51562
C         -6.82903       -0.72555       -2.86241
C         -5.43981       -1.34936       -4.86395
H         -5.87833        1.29661       -4.49377
H         -5.21862        1.47696       -2.87611
H         -4.16172        1.02251       -4.21882
H         -6.84986       -0.21065       -1.90218
H         -7.60026       -0.28952       -3.49712
H         -7.08834       -1.76917       -2.68660
H         -4.45951       -1.30079       -5.33578
H         -5.70226       -2.39914       -4.74162
H         -6.16239       -0.90858       -5.55063
C         -3.66895        1.98664        5.91568
C         -2.71281        1.18412        5.01295
C         -1.27032        1.62665        5.31752
C         -2.87083       -0.31359        5.33660
H         -4.70403        1.68358        5.75927
H         -3.43444        1.82436        6.96766
H         -3.58699        3.05577        5.72032
H         -1.13175        2.67836        5.06952
H         -1.03724        1.49632        6.37407
H         -0.54854        1.04500        4.74568
H         -2.17808       -0.91941        4.75347
H         -2.67802       -0.50816        6.39132
H         -3.88130       -0.65185        5.10870
C         -4.97024        4.27205        0.26827
C         -5.52657        3.18285        1.20516
C         -6.28998        3.86962        2.35356
C         -6.50923        2.28525        0.43027
H         -4.47166        3.83538       -0.59640
H         -5.76906        4.91601       -0.09907
H         -4.24604        4.89638        0.79143
H         -7.10602        4.47889        1.96510
H         -6.72236        3.13467        3.03226
H         -5.63236        4.52465        2.92483
H         -6.02450        1.81402       -0.42363
H         -6.89632        1.49425        1.07224
H         -7.35485        2.86252        0.05686
C          4.76307        2.97505       -2.64791
C          4.07489        3.96129       -1.68321
C          5.16234        4.61425       -0.80885
C          3.35860        5.04196       -2.51102
H          5.29179        2.19620       -2.09865
H          4.03938        2.50011       -3.30885
H          5.49140        3.49014       -3.27406
H          5.65814        3.86630       -0.19028
H          5.91976        5.09812       -1.42531
H          4.74076        5.37002       -0.14740
H          2.86750        5.77194       -1.86853
H          4.06315        5.57622       -3.14819
H          2.60010        4.59490       -3.15138
C          1.39841        3.50185        3.60824
C          0.89236        4.11216        2.28845
C         -0.64003        3.99649        2.21549
C          1.26209        5.60793        2.26909
H          0.97271        4.01904        4.46780
H          1.13260        2.44840        3.68253
H          2.48375        3.57505        3.67391
H         -1.01719        4.45760        1.30364
H         -0.95730        2.95606        2.22594
H         -1.11162        4.49643        3.06126
H          2.33911        5.74825        2.35874
H          0.92542        6.08259        1.34751
H          0.79211        6.13225        3.10111
C          5.84392       -1.40479        3.46772
C          5.86560       -2.56819        2.45884
C          7.31927       -3.05364        2.30164
C          5.01540       -3.73450        2.99679
H          4.82688       -1.06126        3.65328
H          6.27235       -1.70825        4.42273
H          6.41936       -0.55889        3.09221
H          7.71925       -3.39189        3.25747
H          7.38052       -3.88915        1.60454
H          7.96356       -2.25246        1.94002
H          4.99707       -4.55832        2.28365
H          5.41834       -4.10999        3.93714
H          3.98644       -3.42489        3.17595
C          7.51808       -0.76762       -2.36053
C          6.29328       -1.68136       -2.54914
C          5.49075       -1.17603       -3.76492
C          6.75635       -3.12137       -2.83637
H          8.12863       -0.74207       -3.26297
H          7.20630        0.25200       -2.13483
H          8.14769       -1.11353       -1.54157
H          6.10127       -1.19789       -4.66752
H          4.61511       -1.79984       -3.94388
H          5.15896       -0.14848       -3.61749
H          5.89946       -3.78549       -2.94811
H          7.34112       -3.16708       -3.75496
H          7.37597       -3.50768       -2.02799
H         -1.64160        0.46257       -4.15636
H          1.99916        2.28675       -4.52510
H         -2.33259       -1.10085       -4.57181
H         -0.95016       -0.48517       -5.47660
H          0.67740        1.33869       -5.20088
H          1.82654        0.58960       -4.08819
