58
-89.85770757
P          1.67191        0.59841        0.60738
C          2.90371        1.75453        0.00773
C          2.54283        3.05781       -0.24628
C          3.48409        3.94815       -0.73205
C          4.77814        3.52420       -0.96249
C          5.13345        2.21354       -0.71108
C          4.19026        1.32566       -0.22572
H          4.44927        0.29710       -0.03270
H          1.52512        3.37095       -0.07380
C          2.38659       -1.01336        0.93963
C          3.03225       -1.25403        2.13066
C          3.55355       -2.50999        2.38496
C          3.42715       -3.51220        1.44282
C          2.79017       -3.26113        0.24348
C          2.27243       -2.00424       -0.00970
H          1.79976       -1.78351       -0.95341
H          3.12656       -0.45992        2.85416
C          0.73217        1.31964        2.02158
C          0.08400        0.29498        2.94437
C         -0.55515       -0.88518        2.22796
P         -1.54012       -0.42208        0.74870
C         -2.24233       -1.91635        0.04365
C         -3.59714       -2.01024       -0.17623
C         -4.12380       -3.15936       -0.73750
C         -3.28726       -4.20489       -1.07608
C         -1.92741       -4.10416       -0.85681
C         -1.40347       -2.95355       -0.29562
H         -0.34246       -2.85683       -0.12845
H         -4.23526       -1.18160        0.08468
C         -2.82720        0.76758        1.13888
C         -3.29756        1.58731        0.13892
C         -4.29127        2.50940        0.40924
C         -4.81416        2.59885        1.68393
C         -4.35070        1.76520        2.68279
C         -3.35591        0.84388        2.40773
H         -2.99747        0.17871        3.17644
H         -2.89889        1.47987       -0.85639
Pd        -0.05516        0.27130       -0.91059
Cl         1.40651        0.86176       -2.50619
Cl        -1.81106        0.08492       -2.30120
H          0.20593       -1.57871        1.86807
H         -1.20218       -1.46095        2.89372
H          0.83054       -0.08240        3.65887
H         -0.66797        0.80018        3.56836
H          1.40970        1.97916        2.56930
H         -0.02621        1.96159        1.56695
H          3.20519        4.96905       -0.93512
H          6.14163        1.88109       -0.89626
H          4.05656       -2.70537        3.31772
H          2.70140       -4.03981       -0.49620
H         -5.18412       -3.23576       -0.91396
H         -1.27403       -4.91782       -1.12581
H         -4.65920        3.15127       -0.37427
H         -4.76472        1.83007        3.67562
H          5.51102        4.21651       -1.34370
H          3.83223       -4.49105        1.64159
H         -3.69612       -5.09988       -1.51600
H         -5.58944        3.31632        1.89831
