111
-148.55445150
P         -2.31304        2.21766        0.76366
P          0.05387        0.13491        0.50214
C         -1.38347        1.72908        2.23733
C         -0.35339        0.82322        2.11639
C         -2.55539        4.05000        0.70514
C         -1.66624        4.67983       -0.34507
C         -1.69921        2.25396        3.47394
H         -2.51072        2.95797        3.56191
C         -0.97568        1.86818        4.58936
H         -1.22052        2.27682        5.55614
C          0.05852        0.95994        4.46512
H          0.62157        0.65971        5.33345
C          0.37035        0.43435        3.22370
H          1.17344       -0.27671        3.10796
Pd        -1.28961        1.23181       -1.04554
Cl        -2.81589        2.17889       -2.38201
Cl        -0.21498        0.01532       -2.59813
C         -4.06558        4.18929        0.43669
C         -4.07523        1.65271        0.78871
H         -0.61075        4.48430       -0.14055
H         -1.88838        4.27401       -1.33358
H         -1.80860        5.76202       -0.39265
H         -4.22352        4.27652       -0.64715
H         -4.44725        5.12744        0.86751
H         -4.26989        1.23028       -0.20617
C         -4.85908        2.96514        0.97639
C         -4.30989        0.61694        1.86785
H         -2.30586        4.42952        1.70443
H         -5.06439        3.10492        2.04660
H         -5.84581        2.89344        0.49418
H         -3.66052       -0.25105        1.73372
H         -4.09791        1.03088        2.85513
H         -5.34572        0.26962        1.87030
C         -1.15539       -4.25583        0.36934
C         -2.06364       -3.24553       -0.03646
C         -1.65537       -1.92535        0.04864
C         -0.38040       -1.60022        0.43213
C          0.53036       -2.57660        0.74082
C          0.18690       -3.91745        0.67934
O         -1.59960       -5.59913        0.49533
C         -3.47536       -3.55692       -0.55835
H         -2.33740       -1.12709       -0.18680
H          1.51833       -2.27504        1.04201
C          1.26023       -4.97950        0.96703
C          4.29833        1.22909       -0.73790
C          3.49263        2.15974       -0.03328
C          2.22423        1.76350        0.35856
C          1.72903        0.53265        0.01239
C          2.45822       -0.32134       -0.77251
C          3.73572        0.00889       -1.19197
O          5.67317        1.50386       -0.96560
C          3.97317        3.57708        0.31595
H          1.59764        2.41664        0.94201
H          2.00473       -1.24986       -1.07075
C          4.49476       -0.95432       -2.11801
C         -3.94419       -2.46378       -1.54697
C         -3.49737       -4.89282       -1.32294
C         -4.45909       -3.60390        0.62031
C          2.65955       -4.46597        0.55881
C          1.27235       -5.29574        2.47006
C          1.00351       -6.26280        0.15591
C         -2.11630       -5.92217        1.78016
H         -4.88031       -2.75015       -2.02555
H         -4.12094       -1.51382       -1.04476
H         -3.20297       -2.30486       -2.32982
H         -3.25164       -5.72721       -0.67069
H         -4.48211       -5.08525       -1.74800
H         -2.77292       -4.88038       -2.13658
H         -5.47202       -3.80922        0.27495
H         -4.18443       -4.37738        1.33323
H         -4.47038       -2.65264        1.15145
H          2.98978       -3.64472        1.19301
H          3.40353       -5.25731        0.64772
H          2.65774       -4.12426       -0.47562
H          1.48803       -4.39903        3.05056
H          0.30977       -5.67917        2.79988
H          2.03089       -6.04162        2.70618
H          0.94735       -6.03843       -0.90876
H          1.80158       -6.98901        0.30815
H          0.06909       -6.73628        0.44635
H         -1.52599       -6.72541        2.22065
H         -2.08692       -5.04895        2.43307
H         -3.14451       -6.27033        1.68313
C          6.53327        1.06303        0.07729
C          4.64220        3.56100        1.69845
C          4.95566        4.10781       -0.74399
C          2.78102        4.56085        0.35432
C          3.50836       -1.76809       -2.98662
C          5.41139       -0.18176       -3.08393
C          5.32351       -1.93080       -1.27013
H          5.49875        2.89122        1.71397
H          4.98746        4.55639        1.97679
H          3.94200        3.22080        2.46110
H          4.50284        4.07946       -1.73452
H          5.24340        5.13715       -0.53157
H          5.86474        3.51264       -0.77643
H          3.12945        5.58656        0.47298
H          2.20588        4.50785       -0.56979
H          2.11173        4.35282        1.18778
H          4.04272       -2.35220       -3.73544
H          2.92824       -2.46944       -2.38917
H          2.81589       -1.10781       -3.50814
H          5.90295       -0.85782       -3.78303
H          4.83713        0.54345       -3.65948
H          6.18781        0.35786       -2.54706
H          6.06015       -1.40342       -0.66906
H          5.85303       -2.64398       -1.90134
H          4.68248       -2.49160       -0.59093
H          7.04828        1.91828        0.51422
H          5.96150        0.54867        0.85072
H          7.28388        0.38665       -0.33138
