72
-98.09319295
Fe        -0.00435        2.82710       -0.02407
P          1.84529       -0.06406       -0.00286
P         -1.84549       -0.07203       -0.00405
C          1.42014        1.58792        0.67219
C          0.44190        1.84864        1.71348
C          0.39628        3.28453        1.92989
C          1.39277        3.90948        1.07871
C          2.01458        2.85950        0.29031
C         -1.40572        1.56624       -0.70681
C         -1.98916        2.85122       -0.35387
C         -1.36344        3.87797       -1.17123
C         -0.38902        3.23193       -2.03084
C         -0.41198        1.80969       -1.73783
C          3.12641       -0.78595        1.11846
C          4.39385       -0.06090        0.63906
C          2.93352        0.13095       -1.49537
C          4.36032        0.20964       -0.89496
C         -3.12769       -0.79397       -1.12555
C         -4.38993       -0.04940       -0.66284
C         -2.94210        0.16750        1.47756
C         -4.36665        0.22780        0.86948
H         -0.16852        1.09957        2.21616
H         -0.24052        3.79991        2.65279
H          1.62246        4.97594        1.02869
H          2.80856        2.99394       -0.44717
H         -2.78496        3.00848        0.37759
H          0.19281        1.04565       -2.22467
Cl         1.59397       -3.09998       -0.12875
Cl        -1.63710       -3.04409        0.19926
Pd         0.00796       -1.50808        0.03343
H          3.19938       -1.85739        0.90164
C          2.77200       -0.56675        2.58352
H          2.64991        1.07433       -1.97709
C          2.78449       -1.02847       -2.47950
H          5.29394       -0.62961        0.91966
H          4.47015        0.89295        1.18103
H          4.81925        1.18328       -1.12213
H          4.99441       -0.52868       -1.40519
H         -1.59772        4.94470       -1.15339
H          0.24501        3.72524       -2.77064
H          2.69713        0.51205        2.77381
H          3.61394       -0.99180       -3.19970
H         -3.21512       -1.86192       -0.89751
C         -2.76197       -0.59606       -2.59093
H         -2.65971        1.12654        1.92805
C         -2.79943       -0.95663        2.50274
H         -5.29476       -0.60773       -0.94903
H         -4.44829        0.90276       -1.20992
H         -4.83807        1.19668        1.09124
H         -4.99440       -0.51650        1.37875
H         -2.67351        0.47946       -2.79344
H         -2.93323       -1.91588        1.98622
C          3.76996       -1.20346        3.53857
H          4.77055       -0.78999        3.40053
H          3.49268       -1.04917        4.58385
H          3.84049       -2.28005        3.37251
C          1.46401       -1.04927       -3.23220
H          1.32707       -0.13853       -3.81807
H          1.40224       -1.89305       -3.92327
H          0.61795       -1.13187       -2.55096
C         -3.76135       -1.23231       -3.54480
H         -4.75783       -0.80548       -3.41816
H         -3.47566       -1.09369       -4.59001
H         -3.84566       -2.30595       -3.36655
C         -1.48507       -0.94933        3.26616
H         -1.35335       -0.01787        3.81975
H         -1.42862       -1.76745        3.98788
H         -0.63342       -1.05603        2.59533
H          1.76461       -0.96283        2.77092
H          2.92296       -1.96887       -1.93033
H         -1.75818       -1.00592       -2.76731
H         -3.63446       -0.89535        3.21475
