72
-98.09559367
Fe         0.00465        2.78104       -0.04853
P          1.85418       -0.09208        0.01004
P         -1.85649       -0.09799       -0.01321
C          1.43559        1.55964        0.68937
C          0.44644        1.83461        1.71703
C          0.40203        3.27120        1.92258
C          1.39139        3.88334        1.05551
C          2.03583        2.82497        0.29809
C         -1.41995        1.53798       -0.72196
C         -1.99589        2.82011       -0.34752
C         -1.34095        3.85685       -1.12845
C         -0.37438        3.21844       -2.00376
C         -0.42058        1.78937       -1.74666
C          3.22596       -0.82369        1.01328
C          4.46917       -0.26554        0.30077
C          2.76613        0.10310       -1.59600
C          4.24374       -0.16242       -1.23219
C         -3.23380       -0.82922       -1.01015
C         -4.47287       -0.24410       -0.31242
C         -2.77432        0.14366        1.58390
C         -4.25168       -0.12175        1.21977
H         -0.16232        1.09454        2.23516
H         -0.24117        3.79606        2.63252
H          1.61946        4.94943        0.99204
H          2.83710        2.95253       -0.43249
H         -2.79343        2.97268        0.38286
H          0.17161        1.03141       -2.25849
Cl         1.57020       -3.06497       -0.43771
Cl        -1.62270       -3.02549        0.46090
Pd         0.00545       -1.51986        0.05046
H          3.17260       -1.91142        0.88822
C          3.13524       -0.46159        2.49090
H          2.61764        1.14426       -1.90554
C          2.23490       -0.84427       -2.66632
H          5.35223       -0.88172        0.53108
H          4.68937        0.73078        0.71003
H          4.89281        0.60987       -1.67080
H          4.55704       -1.10442       -1.70213
H         -1.56095        4.92634       -1.08703
H          0.26872        3.72092       -2.73023
H          4.08053       -0.72576        2.98514
H          2.45464       -1.87643       -2.36404
H         -3.19641       -1.91535       -0.86781
C         -3.12847       -0.49347       -2.49271
H         -2.62146        1.19161        1.86707
C         -2.25250       -0.77731        2.68139
H         -5.36290       -0.85215       -0.53736
H         -4.67811        0.74889       -0.73717
H         -4.89930        0.65843        1.64640
H         -4.56921       -1.05663        1.70092
H         -4.07391       -0.75186       -2.98970
H         -1.15857       -0.71928        2.72038
C          1.97258       -1.14180        3.19434
H          1.02547       -0.88236        2.72292
H          2.06354       -2.22865        3.14801
H          1.90493       -0.85959        4.24738
C          2.80816       -0.56364       -4.04703
H          3.89583       -0.65346       -4.05188
H          2.41853       -1.25256       -4.79993
H          2.56804        0.45001       -4.37363
C         -1.97049       -1.20377       -3.17380
H         -1.02532       -0.95909       -2.69072
H         -2.08374       -2.28807       -3.11782
H         -1.88263       -0.93361       -4.22849
C         -2.83949       -0.46490        4.04944
H         -3.92698       -0.55683        4.04612
H         -2.45586       -1.13483        4.82230
H         -2.60434        0.55676        4.35397
H          3.05491        0.62939        2.58403
H          1.14067       -0.78945       -2.69570
H         -3.03068        0.59441       -2.60369
H         -2.46792       -1.81667        2.40152
