59
-75.79893387
Cl         1.59758        0.85362        2.29470
P          1.64969        0.02953       -0.80283
P         -1.54187       -0.13459       -0.84976
C          0.69523        0.59366       -2.27840
H          0.44309        1.64786       -2.14001
H          1.33923        0.52057       -3.15996
C         -0.54562       -0.24716       -2.40847
H         -0.28217       -1.29422       -2.57324
H         -1.17193        0.06409       -3.25039
C          2.29921       -1.67320       -1.14629
H          1.96358       -1.89879       -2.16700
C          3.25481        0.92147       -0.58471
H          3.44702        0.94073        0.49511
C         -2.37708       -1.69701       -0.29981
H         -1.85591       -2.04078        0.60263
C         -3.01803        0.95886       -1.09065
H         -2.99363        1.29743       -2.13412
C          3.83228       -1.50505       -1.13085
H          4.23433       -1.89753       -0.18944
H          4.29157       -2.12234       -1.91748
C          4.25387       -0.01735       -1.28357
H          4.29914        0.24664       -2.34947
H          5.27056        0.14738       -0.89455
C         -3.80079       -1.20838        0.03433
H         -4.52214       -2.02855       -0.08641
H         -3.85374       -0.92183        1.09535
C         -4.20670        0.00717       -0.84310
H         -5.03214        0.56253       -0.37438
H         -4.60349       -0.35463       -1.80313
C          1.73875       -2.70526       -0.16781
H          2.02810       -3.71205       -0.50018
H          0.64217       -2.68404       -0.23240
C          3.22769        2.34278       -1.13271
H          4.25357        2.73566       -1.16389
H          2.89800        2.31498       -2.17928
C         -2.32026       -2.77866       -1.37362
H         -2.84411       -2.41565       -2.26770
H         -1.27772       -2.92167       -1.68620
C         -2.99746        2.16598       -0.16100
H         -3.96393        2.68567       -0.22165
H         -2.92639        1.81051        0.87470
C          2.16287       -2.50587        1.28193
H          1.98201       -1.48396        1.61430
H          3.22544       -2.70410        1.42831
H          1.62027       -3.16922        1.95954
C          2.34071        3.27074       -0.31756
H          1.31651        2.90072       -0.27465
H          2.30973        4.28111       -0.73147
H          2.69192        3.34658        0.71326
C         -2.89706       -4.11336       -0.92168
H         -2.80348       -4.88080       -1.69358
H         -3.95619       -4.03362       -0.67296
H         -2.38434       -4.48101       -0.03075
C         -1.86865        3.13680       -0.46690
H         -1.94349        3.52346       -1.48503
H         -1.86648        3.99203        0.21263
H         -0.89823        2.64926       -0.38022
Cl        -1.63107        0.40614        2.33172
Pd         0.01406        0.27016        0.81387
