115
-277.94335779
P         -1.88418        0.37784        0.10618
P          1.66076       -0.20108        0.32952
C         -2.24945        2.11907       -0.16331
C         -1.23575        3.01988       -0.40926
H         -0.24343        2.67343       -0.64560
C         -1.48325        4.37135       -0.28574
H         -0.68396        5.09177       -0.36503
C         -2.74009        4.81892        0.08588
C         -3.77944        3.90911        0.20178
H         -4.74989        4.26097        0.51244
C         -3.53584        2.55711        0.06932
H         -4.32131        1.84173        0.25795
C         -3.20690       -0.60026       -0.64897
C         -3.43637       -1.87261       -0.17786
H         -2.84760       -2.25902        0.63658
C         -4.42905       -2.64848       -0.73766
H         -4.61816       -3.64887       -0.38107
C         -5.19836       -2.15724       -1.77434
C         -4.96211       -0.88129       -2.24523
H         -5.55814       -0.51582       -3.06662
C         -3.97254       -0.10297       -1.67915
H         -3.78066        0.88771       -2.05886
C         -1.75305       -0.06049        1.87355
C         -1.08726       -1.26247        2.02904
H         -0.66125       -1.73803        1.16189
C         -0.79147       -1.77257        3.29161
C         -1.37004       -1.14999        4.39112
H         -1.18747       -1.54408        5.37685
C         -2.03062        0.05348        4.24632
H         -2.35596        0.58500        5.12461
C         -2.13090        0.68008        3.00404
C          1.35310        0.29748        2.05769
C          0.67518        1.50131        2.10052
H          0.34190        1.94445        1.17786
C          0.24223        2.05169        3.30489
C          0.69437        1.46653        4.48146
H          0.40415        1.89163        5.42768
C          1.36609        0.26079        4.44925
H          1.59190       -0.24133        5.37482
C          1.60298       -0.40520        3.24643
C         -2.28952        2.18607        3.00674
H         -3.06775        2.46802        3.72485
H         -2.68505        2.50702        2.04757
C         -0.95680        2.96029        3.31797
H         -0.79896        3.77769        2.60585
H         -1.02091        3.45411        4.29391
C          0.39565       -2.67891        3.47234
H          0.32811       -3.51091        2.76306
H          0.33676       -3.15388        4.45801
C          1.75797       -1.90997        3.31580
H          2.43482       -2.16905        4.13794
H          2.27853       -2.26085        2.42952
C          2.16804       -1.92274        0.20165
C          3.44631       -2.25278        0.60037
C          1.24955       -2.90687       -0.09427
C          3.76091       -3.57427        0.84681
C          1.56910       -4.22783        0.14309
C          2.80125       -4.56146        0.68123
C          3.00281        0.80095       -0.35710
C          3.19563        2.08140        0.10982
C          3.83967        0.29190       -1.32333
C          4.22368        2.85389       -0.39070
H          2.55782        2.47323        0.88339
C          4.86477        1.06425       -1.82758
H          3.68823       -0.71060       -1.69022
C          5.06080        2.35197       -1.36661
H          4.40231        3.85202       -0.02304
H          5.53014        0.67436       -2.58159
Pd        -0.02513       -0.00892       -1.29793
Cl        -1.51436        0.44846       -2.91493
Cl         1.54412       -0.62186       -2.77710
H          0.83149       -5.00678        0.02571
H          0.26862       -2.64744       -0.45609
H          4.71076       -3.83633        1.28441
H          4.15742       -1.47294        0.82552
C         -4.29244        6.76437        0.56861
C         -2.85016        6.19367        0.69538
C         -2.39123        6.03611        2.17988
F         -4.29091        8.05093        0.95073
F         -4.65825        6.66438       -0.71786
F         -5.12877        6.04911        1.33346
F         -2.01399        7.03841        0.08710
F         -1.09044        5.71847        2.16370
F         -2.58818        7.18261        2.84443
F         -3.07375        5.02961        2.74376
C         -5.55463       -4.11741       -3.26970
C         -6.25423       -3.01628       -2.42213
C         -7.19544       -3.61304       -1.33446
F         -4.74044       -4.83267       -2.47982
F         -6.48275       -4.90617       -3.83207
F         -4.83552       -3.49820       -4.21817
F         -7.00385       -2.28032       -3.24730
F         -6.50842       -4.47374       -0.57050
F         -7.64086       -2.59497       -0.58295
F         -8.22525       -4.23188       -1.93208
C          7.50807        2.71141       -1.11744
C          6.22063        3.18490       -1.85065
C          6.35009        3.09081       -3.39958
F          8.56016        3.41788       -1.55742
F          7.32239        2.92266        0.19436
F          7.68761        1.40160       -1.34353
F          6.02302        4.46887       -1.53910
F          7.26373        3.97913       -3.82062
F          6.70991        1.84690       -3.74577
F          5.14944        3.37924       -3.92390
C          4.39894       -6.36226        1.48014
C          2.92146       -5.88050        1.40270
C          2.28638       -5.65082        2.81118
F          4.90172       -6.33554        0.23694
F          5.10092       -5.53799        2.27001
F          4.42785       -7.61383        1.96412
F          2.21102       -6.81945        0.77311
F          2.45993       -6.73823        3.57431
F          2.84989       -4.57293        3.37465
F          0.98226       -5.40884        2.62593
