171
-217.83778606
P         -1.69019        0.67316        0.21496
P          1.53562       -0.18315       -0.30119
C         -0.95537        1.78022       -1.00873
C          0.65036       -0.91025       -1.69271
C         -0.28330        1.34880       -2.14640
C          0.35015        2.30522       -2.96237
C          0.26778        3.64571       -2.62569
C         -0.40642        4.05587       -1.49574
C         -1.00937        3.11508       -0.68326
C          0.80259       -2.24156       -1.99179
C          0.11187       -2.79955       -3.04943
C         -0.73246       -2.01409       -3.80682
C         -0.89913       -0.66737       -3.52516
C         -0.17958       -0.09975       -2.45677
Cl         2.15426        1.25916        2.50702
Cl        -0.84765        0.63946        3.46644
C         -1.81653        0.16822       -4.34873
C          1.13523        1.91224       -4.16510
H         -0.45317        5.10182       -1.24016
H         -1.51707        3.41780        0.22075
H          1.46635       -2.84644       -1.39865
H          0.22911       -3.84612       -3.27866
H          0.75222        4.37128       -3.25722
H         -1.26959       -2.44748       -4.63323
C         -2.83903       -3.60907       -0.75248
C         -1.79097       -3.39582        0.13583
C         -1.41172       -2.08400        0.39070
C         -2.06114       -1.03539       -0.21936
C         -3.10304       -1.26820       -1.08300
C         -3.51553       -2.56292       -1.36832
H         -3.15135       -4.61541       -0.95350
H         -0.61570       -1.88263        1.08510
H         -3.62144       -0.43057       -1.51629
C         -5.64311        2.47502        1.49251
C         -5.34086        2.38373        0.13961
C         -4.10646        1.85255       -0.21384
C         -3.23068        1.42164        0.75248
C         -3.54853        1.51687        2.08286
C         -4.76501        2.05251        2.48274
H         -6.59165        2.88750        1.78376
H         -3.81416        1.77445       -1.24730
H         -2.82872        1.17563        2.80376
C          3.96150       -3.47122        1.71768
C          3.01193       -2.80411        2.47870
C          2.26940       -1.80729        1.86161
C          2.48542       -1.47427        0.54466
C          3.45021       -2.13165       -0.18027
C          4.20140       -3.15260        0.38830
H          4.53215       -4.25898        2.17417
H          1.52327       -1.27970        2.42439
H          3.60848       -1.85020       -1.20547
C          4.39702        2.91408       -1.95754
C          3.61404        3.25158       -0.86106
C          2.75681        2.28447       -0.35419
C          2.67998        1.04417       -0.93500
C          3.44060        0.73736       -2.03699
C          4.32362        1.66929       -2.57006
H          5.09239        3.63960       -2.33708
H          2.14575        2.48984        0.50563
H          3.32026       -0.22781       -2.49648
Pd         0.24213        0.61475        1.50990
C         -1.28133       -4.32333        2.40390
C         -1.10743       -4.54753        0.89032
C          0.38931       -4.58432        0.53931
C         -1.72081       -5.91422        0.52885
H         -2.33773       -4.25947        2.66381
H         -0.84374       -5.14229        2.97398
H         -0.80367       -3.39848        2.72316
H          0.87434       -3.64501        0.79529
H          0.89995       -5.38094        1.07981
H          0.53008       -4.76031       -0.52647
H         -1.22785       -6.71579        1.07891
H         -2.78114       -5.94734        0.77861
H         -1.60690       -6.12676       -0.53402
C         -5.00625       -4.27826       -2.51852
C         -4.74809       -2.78175       -2.25847
C         -4.54217       -2.08468       -3.61459
C         -5.98037       -2.18211       -1.55564
H         -5.21548       -4.80916       -1.59008
H         -5.86647       -4.41373       -3.17403
H         -4.14678       -4.74524       -2.99939
H         -5.40000       -2.24216       -4.26817
H         -4.41336       -1.01029       -3.49218
H         -3.66005       -2.47883       -4.11735
H         -5.85564       -1.11287       -1.38741
H         -6.88009       -2.32423       -2.15400
H         -6.13943       -2.65526       -0.58689
C         -5.83889        2.62663       -2.34431
C         -6.35909        2.85006       -0.91015
C         -6.63458        4.35224       -0.71765
C         -7.66648        2.05422       -0.73947
H         -6.57470        2.95515       -3.07817
H         -4.92276        3.18959       -2.52214
H         -5.63793        1.57136       -2.52891
H         -7.34272        4.71764       -1.46119
H         -7.05165        4.55478        0.26817
H         -5.71416        4.92754       -0.81611
H         -8.40228        2.34765       -1.48802
H         -7.48318        0.98536       -0.84740
H         -8.10686        2.22038        0.24291
C         -5.41517        3.66218        4.29259
C         -5.15639        2.18087        3.96176
C         -4.04170        1.66147        4.89146
C         -6.43158        1.35853        4.22290
H         -6.23314        4.06463        3.69625
H         -5.67585        3.78745        5.34338
H         -4.52755        4.26158        4.09106
H         -3.83451        0.60786        4.70566
H         -3.11887        2.22362        4.75025
H         -4.33176        1.76093        5.93725
H         -6.72367        1.41389        5.27143
H         -7.26658        1.72153        3.62477
H         -6.27097        0.31022        3.97182
C          2.39622       -4.63326        4.08176
C          2.82599       -3.16059        3.96063
C          1.75338       -2.27726        4.62973
C          4.15829       -2.94559        4.70237
H          1.46434       -4.80694        3.54594
H          3.14969       -5.30139        3.66630
H          2.24230       -4.91046        5.12445
H          2.02449       -1.22297        4.57692
H          0.78202       -2.40612        4.15441
H          1.64040       -2.53601        5.68226
H          4.48896       -1.91175        4.60441
H          4.05413       -3.16794        5.76419
H          4.94282       -3.58716        4.30301
C          6.61354       -3.84370        0.30139
C          5.25155       -3.93583       -0.41147
C          5.41351       -3.37567       -1.83860
C          4.81149       -5.40768       -0.50912
H          6.57267       -4.28416        1.29674
H          7.38472       -4.36850       -0.26227
H          6.92180       -2.80374        0.40756
H          5.72202       -2.33066       -1.81485
H          6.17259       -3.93153       -2.38877
H          4.48169       -3.44997       -2.39905
H          5.52889       -5.99273       -1.08429
H          4.72561       -5.86006        0.47830
H          3.84058       -5.48688       -0.99818
C          5.15146        4.85176        0.30166
C          3.72353        4.64875       -0.23555
C          2.73070        4.82693        0.93065
C          3.41178        5.71253       -1.30421
H          5.25706        5.83021        0.76989
H          5.39287        4.09298        1.04580
H          5.88820        4.78258       -0.49785
H          2.93287        4.11546        1.73099
H          2.80624        5.82831        1.35392
H          1.70326        4.68650        0.59556
H          3.46734        6.71619       -0.88312
H          4.11530        5.66027       -2.13418
H          2.40899        5.57102       -1.70590
C          4.81719        0.02188       -4.44525
C          5.24744        1.32871       -3.74895
C          6.68072        1.15773       -3.21640
C          5.21754        2.45987       -4.79560
H          4.90488       -0.83177       -3.77418
H          3.78566        0.08435       -4.79122
H          5.44671       -0.18007       -5.31175
H          7.03345        2.07396       -2.74360
H          6.72293        0.36118       -2.47363
H          7.37055        0.90664       -4.02192
H          4.20442        2.62659       -5.15933
H          5.58648        3.39809       -4.38404
H          5.84296        2.21057       -5.65272
H         -2.41964        0.82257       -3.71704
H          0.64459        2.24759       -5.07993
H         -2.49738       -0.44747       -4.93763
H         -1.25694        0.79482       -5.04360
H          1.26595        0.83129       -4.22631
H          2.12811        2.36175       -4.13537
