100
-131.97234085
C         -1.66888        3.80754       -1.47721
C         -2.36103        2.51514       -1.50725
C         -0.26883        3.55176       -1.47007
C         -0.01564        2.08961       -1.59407
C          1.18224        1.56161       -2.30256
C         -1.38299        1.46473       -1.56667
C         -1.75415        0.05791       -2.01394
C         -0.80727       -0.55624       -3.02421
Cl         1.15982       -0.82319        2.69980
Cl        -1.83520       -1.22347        2.41235
C          3.36206        0.67512       -3.82248
C          2.60621        1.74252       -4.26521
C          3.04611        0.06096       -2.61911
C          1.54344        2.18331       -3.51756
C          1.97092        0.47500       -1.86831
H         -3.44017        2.37764       -1.59951
H          0.50760        4.31840       -1.53233
H          0.13228       -0.83140       -2.54868
H         -1.22165       -1.45826       -3.47981
H         -0.58120        0.14409       -3.83165
H          4.20449        0.33143       -4.40016
H          2.85249        2.22920       -5.19506
H          3.67481       -0.73738       -2.26069
H          0.94910        3.01052       -3.86572
H         -2.14528        4.79150       -1.48003
P          1.81858       -0.30545       -0.24084
H         -2.74608        0.12505       -2.47812
P         -2.01497       -1.04923       -0.55470
H         -3.01743       -2.98868       -1.61660
C         -1.79474       -3.83827       -0.03378
C         -2.06477       -2.79985       -1.12541
C         -2.94264       -3.94992        0.96961
H         -3.41418        0.59599        0.40679
C         -4.87392       -0.58831       -0.64918
C         -3.59800       -0.45873        0.19897
H         -4.59346       -0.44772       -1.70723
C         -5.52672       -1.96456       -0.50725
H          3.55396       -1.92859       -0.63999
H          2.60124        0.58502        1.86888
C          3.60884        3.11337        1.40512
C          2.76094        2.22202        0.47922
C          2.92673        0.73845        0.83444
C          4.40497        0.33603        0.72851
C          5.28498        1.21724        1.63962
C          5.09475        2.71395        1.32366
H          3.25647        3.00159        2.43800
H          3.47147        4.17566        1.15920
H          3.08463        2.37185       -0.55831
H          1.70216        2.50600        0.49310
H          4.53651       -0.72610        0.97135
H          4.72734        0.44401       -0.31389
H          5.01839        1.03147        2.68751
H          6.34260        0.93171        1.55145
H          5.47122        2.92202        0.31419
H          5.70233        3.33500        1.99702
C          2.36924       -4.26266       -1.55873
C          1.77169       -2.84818       -1.41294
C          2.50638       -2.03803       -0.33729
C          2.48203       -2.78568        1.00339
C          3.10452       -4.18825        0.87101
C          2.37414       -5.00717       -0.20951
H          3.39736       -4.18370       -1.93335
H          1.82383       -4.83785       -2.32002
H          0.71674       -2.91980       -1.13030
H          1.78588       -2.31652       -2.37372
H          2.98240       -2.19841        1.78449
H          1.44228       -2.88417        1.33548
H          4.16352       -4.09139        0.60141
H          3.09288       -4.71308        1.83657
H          1.34116       -5.18703        0.11211
H          2.82537       -6.00391       -0.31545
H         -0.89540       -3.50737        0.51675
C         -1.49844       -5.20732       -0.65467
H         -3.74597       -0.93566        1.16635
C         -5.87584        0.51022       -0.27643
H         -1.30802       -2.89238       -1.90441
H         -3.16714       -2.99188        1.43496
H         -2.70463       -4.65515        1.76750
H         -3.85003       -4.30649        0.48257
H         -1.25128       -5.94791        0.10755
H         -2.36744       -5.57538       -1.20096
H         -0.66725       -5.15911       -1.35948
H         -4.87086       -2.76757       -0.83634
H         -5.79004       -2.15930        0.53290
H         -6.44459       -2.03064       -1.09374
H         -6.17224        0.41855        0.76897
H         -5.45092        1.50618       -0.41017
H         -6.78126        0.44925       -0.88225
Fe        -1.11385        2.67940        0.09239
C         -2.54233        3.13735        1.55003
C         -1.60566        4.22710        1.34433
C         -0.26626        3.76010        1.65424
C         -0.36462        2.35971        2.00991
C         -1.75899        1.97495        1.91153
H         -3.62702        3.17893        1.42918
H         -1.87401        5.25326        1.08146
H          0.64278        4.36568        1.65207
H          0.44539        1.70585        2.33855
H         -2.14969        0.99421        2.18445
Pd        -0.21806       -0.68289        0.89787
