171
-217.84404030
P         -1.58978        0.40789       -0.37168
P          1.56679       -0.41787       -0.36227
C         -0.87887        1.35220       -1.72631
C          0.85814       -1.36990       -1.71236
C         -0.09140        0.72912       -2.68779
C          0.53502        1.52167       -3.66912
C          0.31764        2.88927       -3.67523
C         -0.49246        3.48432       -2.73176
C         -1.08200        2.71058       -1.75162
C          1.05378       -2.72948       -1.72692
C          0.46920       -3.50602       -2.70786
C         -0.32641       -2.91209       -3.66434
C         -0.53625       -1.54325       -3.66860
C          0.08285       -0.74858       -2.68452
Cl         1.63050        0.37614        2.78773
Cl        -1.56442       -0.25670        2.89823
C         -1.39844       -0.93839       -4.72105
C          1.41885        0.91893       -4.70469
H         -0.66086        4.54857       -2.75522
H         -1.70657        3.16997       -1.00309
H          1.66879       -3.18728       -0.96956
H          0.63140       -4.57138       -2.72291
H          0.79311        3.48983       -4.43235
H         -0.79567       -3.51454       -4.42381
C         -3.86521       -3.33181       -1.50363
C         -2.90059       -3.40620       -0.50606
C         -2.19354       -2.25112       -0.20285
C         -2.44704       -1.08101       -0.87381
C         -3.40620       -1.02060       -1.85438
C         -4.13933       -2.15375       -2.18851
H         -4.43622       -4.20784       -1.74702
H         -1.45392       -2.25786        0.57945
H         -3.58653       -0.07729       -2.34117
C         -4.35011        2.92884        2.19609
C         -4.88410        1.86527        1.47858
C         -4.02137        1.11738        0.68809
C         -2.68878        1.43662        0.61437
C         -2.17890        2.49214        1.32834
C         -2.99940        3.25413        2.14901
H         -5.00888        3.50937        2.81390
H         -4.38006        0.26962        0.13217
H         -1.12731        2.71064        1.25560
C          4.33823       -2.92239        2.21413
C          2.98558       -3.24382        2.18037
C          2.15926       -2.48837        1.35884
C          2.66539       -1.44270        0.62830
C          3.99869       -1.12626        0.69107
C          4.86660       -1.86412        1.48322
H          4.99459       -3.50660        2.82954
H          1.10669       -2.70457        1.29672
H          4.36490       -0.28546        0.12820
C          3.89081        3.27980       -1.53009
C          2.91064        3.38283       -0.55023
C          2.18640        2.24115       -0.23735
C          2.43784        1.05650       -0.88263
C          3.41038        0.96833       -1.84783
C          4.16187        2.08680       -2.19005
H          4.47796        4.14411       -1.77691
H          1.43595        2.26950        0.53404
H          3.58849        0.01419       -2.31402
Pd        -0.01415        0.01239        1.30053
C         -3.53994       -5.84443       -0.14193
C         -2.61251       -4.69041        0.28359
C         -2.82599       -4.42061        1.78552
C         -1.15572       -5.11725        0.03672
H         -4.58618       -5.58777        0.02331
H         -3.40501       -6.08821       -1.19557
H         -3.32558       -6.74454        0.43416
H         -3.84880       -4.09650        1.97621
H         -2.64028       -5.31894        2.37392
H         -2.15744       -3.64148        2.14905
H         -0.90841       -6.01287        0.60626
H         -0.99282       -5.33223       -1.01873
H         -0.46282       -4.32968        0.32794
C         -6.60593       -2.41606       -2.52556
C         -5.26786       -2.12327       -3.22920
C         -5.00759       -3.19200       -4.30755
C         -5.37036       -0.74785       -3.91708
H         -7.43397       -2.38772       -3.23361
H         -6.59919       -3.40009       -2.05806
H         -6.80144       -1.67849       -1.74766
H         -4.04629       -3.02819       -4.79250
H         -4.99885       -4.19405       -3.88073
H         -5.78061       -3.16619       -5.07543
H         -5.60077        0.03582       -3.19558
H         -4.44003       -0.48960       -4.42154
H         -6.16281       -0.74795       -4.66538
C         -6.69710        1.15521        3.05401
C         -6.37744        1.52910        1.59536
C         -6.76441        0.34273        0.68946
C         -7.21237        2.75281        1.17543
H         -6.48535        1.98312        3.72967
H         -7.74814        0.89063        3.16835
H         -6.09688        0.30288        3.37198
H         -7.82873        0.12315        0.77236
H         -6.55338        0.56451       -0.35655
H         -6.22015       -0.55937        0.96860
H         -6.97668        3.04628        0.15262
H         -8.27868        2.53310        1.22632
H         -7.01813        3.60745        1.82226
C         -1.06957        4.01166        3.58179
C         -2.40663        4.43148        2.93627
C         -3.35441        4.89225        4.06100
C         -2.16913        5.60394        1.97006
H         -0.67542        4.80696        4.21407
H         -1.20226        3.12338        4.19904
H         -0.31306        3.78854        2.83148
H         -4.28125        5.29883        3.65756
H         -3.60027        4.06408        4.72551
H         -2.89079        5.67528        4.66094
H         -3.10802        5.93367        1.52560
H         -1.72105        6.45291        2.48604
H         -1.50392        5.31109        1.15915
C          1.04887       -4.00613        3.60459
C          2.39910       -4.41621        2.98025
C          3.33975       -4.84523        4.12363
C          2.18908       -5.60704        2.03039
H          1.16066       -3.10415        4.20592
H          0.29594       -3.81092        2.84309
H          0.66163       -4.79559        4.24837
H          2.87715       -5.62013        4.73482
H          4.27430       -5.25185        3.73856
H          3.57132       -4.00134        4.77332
H          1.74521       -6.45333        2.55438
H          1.53089       -5.33570        1.20632
H          3.13773       -5.93175        1.60330
C          7.15816       -2.39575        2.45810
C          6.34846       -1.46662        1.53392
C          6.46441       -0.02479        2.06395
C          6.94421       -1.54522        0.11573
H          6.78340       -2.35546        3.48068
H          7.11333       -3.42850        2.11287
H          8.20717       -2.10059        2.47996
H          5.95239        0.68036        1.41001
H          6.01937        0.05690        3.05536
H          7.50749        0.28302        2.13434
H          6.85128       -2.55419       -0.28552
H          6.43381       -0.86641       -0.56640
H          8.00110       -1.27926        0.12092
C          2.82048        4.43591        1.72286
C          2.62594        4.68274        0.21442
C          1.17576        5.11833       -0.05540
C          3.56857        5.82085       -0.22027
H          2.63716        5.34559        2.29431
H          2.14038        3.66931        2.09161
H          3.83787        4.10501        1.93015
H          0.47247        4.34243        0.24249
H          0.93067        6.02620        0.49541
H          1.02614        5.31591       -1.11621
H          4.61038        5.55856       -0.03689
H          3.44914        6.04611       -1.27989
H          3.35474        6.73322        0.33641
C          6.64037        2.28156       -2.46768
C          5.31322        2.02050       -3.20364
C          5.10808        3.08875       -4.29442
C          5.39545        0.63896       -3.88221
H          6.64781        3.26862       -2.00655
H          6.79552        1.54443       -1.68004
H          7.48525        2.22610       -3.15389
H          5.11652        4.09372       -3.87462
H          5.89843        3.03680       -5.04309
H          4.15473        2.94728       -4.80178
H          4.46837        0.39989       -4.40194
H          6.20107        0.61610       -4.61596
H          5.59447       -0.14610       -3.15302
H         -2.26819       -1.56510       -4.91854
H          2.31342        1.52473       -4.85013
H         -0.85001       -0.82622       -5.65720
H         -1.76241        0.04535       -4.42151
H          0.90429        0.84926       -5.66397
H          1.74270       -0.08304       -4.42003
