111
-148.55071122
P         -2.04606        2.55724        0.95135
P         -0.22337       -0.03101        0.54118
C         -1.25584        1.76808        2.37598
C         -0.47199        0.64934        2.19579
C         -1.68566        4.37232        0.95498
C         -1.09004        4.80932       -0.36559
C         -1.38840        2.32249        3.63292
H         -1.98195        3.21292        3.76175
C         -0.74049        1.74763        4.71252
H         -0.84621        2.17844        5.69480
C          0.05414        0.63285        4.52859
H          0.57090        0.19289        5.36562
C          0.19753        0.08959        3.26449
H          0.84689       -0.75619        3.09969
Pd        -1.39209        1.36967       -0.90937
Cl        -2.77884        2.61691       -2.15173
Cl        -0.45978        0.20782       -2.59315
C         -3.06121        5.00095        1.25909
C         -3.89603        2.58796        1.01452
H         -1.79313        4.63132       -1.18092
H         -0.84834        5.87486       -0.36492
H         -0.17726        4.25487       -0.59374
H         -3.13147        5.98353        0.77003
H         -3.15256        5.19998        2.33697
H         -4.24090        1.98511        0.16297
C         -4.22825        4.07974        0.80532
C         -4.42372        2.01296        2.31140
H         -0.97561        4.55100        1.77408
H         -5.15301        4.33000        1.34532
H         -4.44520        4.26694       -0.25672
H         -5.51597        1.98878        2.32320
H         -4.06085        0.99481        2.47099
H         -4.10154        2.61581        3.16157
C         -0.93979       -4.52975        0.22925
C         -1.10402       -3.88861        1.48365
C         -0.88946       -2.52231        1.55701
C         -0.59338       -1.78764        0.43732
C         -0.55884       -2.39025       -0.79311
C         -0.76065       -3.75065       -0.94112
O         -0.91764       -5.94784        0.15256
C         -1.46655       -4.66116        2.76176
H         -0.94624       -2.01374        2.50173
H         -0.36871       -1.76994       -1.65000
C         -0.74830       -4.35623       -2.35351
C          3.96096        1.05559       -0.87252
C          3.54901       -0.30134       -0.92152
C          2.27134       -0.61391       -0.49098
C          1.44909        0.34689        0.03393
C          1.87775        1.64033        0.18078
C          3.14511        2.02120       -0.22792
O          5.17019        1.45632       -1.50040
C          4.43921       -1.42553       -1.47378
H          1.89393       -1.61701       -0.57605
H          1.19613        2.35361        0.61226
C          3.59910        3.47117        0.00055
C         -2.37518       -5.86237        2.44272
C         -0.17884       -5.13989        3.44909
C         -2.24315       -3.75736        3.74629
C          0.69349       -4.72447       -2.73563
C         -1.65453       -5.59795       -2.43444
C         -1.28652       -3.33920       -3.38626
C          0.38136       -6.51323        0.27742
H         -1.86486       -6.59019        1.81664
H         -2.68550       -6.37227        3.35441
H         -3.27059       -5.53652        1.91450
H         -0.40451       -5.68099        4.36765
H          0.39103       -5.80156        2.80130
H          0.45958       -4.29406        3.70332
H         -1.61309       -2.96690        4.15152
H         -3.10042       -3.29676        3.25601
H         -2.61288       -4.33586        4.59262
H          0.73378       -5.16066       -3.73336
H          1.33051       -3.84054       -2.72892
H          1.11637       -5.44238       -2.03682
H         -2.66947       -5.35258       -2.12355
H         -1.69593       -5.98747       -3.45131
H         -1.29325       -6.39628       -1.79124
H         -2.25888       -2.95410       -3.08064
H         -0.60981       -2.49581       -3.51417
H         -1.40317       -3.80544       -4.36421
H          1.12288       -5.73091        0.44466
H          0.39565       -7.21261        1.11324
H          0.63147       -7.06248       -0.63002
C          5.01693        1.82845       -2.86441
C          4.12271       -2.76633       -0.77140
C          4.17300       -1.58579       -2.97842
C          5.92945       -1.13194       -1.22390
C          2.90706        4.06999        1.24676
C          5.11625        3.54113        0.25137
C          3.22481        4.32181       -1.22266
H          3.13007       -3.13355       -1.02677
H          4.83371       -3.53644       -1.06975
H          4.18011       -2.65921        0.31147
H          4.77913       -2.38733       -3.39976
H          3.12498       -1.82256       -3.16063
H          4.40204       -0.67045       -3.51888
H          6.55358       -1.95975       -1.55962
H          6.25367       -0.24029       -1.75418
H          6.11643       -0.97491       -0.16214
H          3.04452        3.42496        2.11424
H          3.32283        5.04808        1.48766
H          1.83870        4.20819        1.08834
H          5.39536        2.90882        1.09355
H          5.67750        3.20605       -0.61744
H          5.43014        4.56071        0.47360
H          3.50869        5.36353       -1.07552
H          2.15109        4.28642       -1.40344
H          3.72194        3.96252       -2.12014
H          5.60561        1.16295       -3.49539
H          3.96767        1.77327       -3.15751
H          5.38297        2.84493       -3.00826
