72
-108.40361016
Cl        -1.76104        0.83784        2.67094
Cl         0.95115       -0.95019        2.75583
P          1.11573       -1.12133       -0.29280
P         -2.24530        0.12061       -0.37526
C         -3.24045       -1.48072       -0.15430
C         -3.60959       -1.64510        1.32164
C         -4.49894       -1.43799       -1.01365
C         -3.33714        1.66344       -0.12678
C         -4.14723        1.95532       -1.39726
C         -1.44557        0.42741       -2.05618
C         -1.49370       -0.73556       -3.02525
C          1.13181        0.24172       -1.49547
C         -0.03591        0.98121       -1.97045
C          0.46965        2.09031       -2.78125
C          1.91635        1.99893       -2.84166
C          2.32424        0.84625       -2.06098
C         -2.37498       -2.66797       -0.55274
H         -2.72477       -1.62217        1.95770
H         -4.28982       -0.87151        1.66707
H         -5.02612       -2.39235       -0.96860
H         -4.26422       -1.24033       -2.05847
C         -4.30019        1.51707        1.04764
H         -4.93256        2.68393       -1.18919
H         -4.62541        1.05955       -1.78897
H         -2.05928        1.22850       -2.47796
H         -0.83692       -1.53565       -2.69239
H         -1.13731       -0.43568       -4.01287
H         -2.50003       -1.13397       -3.14868
H         -0.14882        2.79235       -3.34381
H          2.57983        2.66044       -3.40353
Pd        -0.51180       -0.27443        1.18867
H          3.34632        0.50880       -1.87531
C         -2.37903        2.81536        0.13850
H         -3.53203        2.38516       -2.18694
H         -3.78227        1.21474        1.95531
H         -4.79072        2.46852        1.25812
H         -5.08777        0.79705        0.83336
H         -1.61439        2.87493       -0.63727
H         -2.91094        3.76856        0.16139
H         -1.88849        2.69147        1.10256
H         -4.10648       -2.60243        1.48718
H         -5.19233       -0.67210       -0.67046
H         -1.44895       -2.67038        0.01921
H         -2.88933       -3.60836       -0.34737
H         -2.13175       -2.66406       -1.61203
C          2.79436       -1.22246        0.38672
C          3.26336       -2.24358        1.17542
C          4.58740       -1.94211        1.49368
C          4.87486       -0.74733        0.88176
O          3.78357       -0.29534        0.19799
H          2.70450       -3.10505        1.50109
H          5.25305       -2.53057        2.10378
H          5.82259       -0.22510        0.92645
C          0.74717       -2.72415       -1.03024
C          0.64699       -3.88244       -0.29942
C          0.35939       -4.90972       -1.19913
C          0.29726       -4.33389       -2.44437
O          0.53013       -2.99106       -2.35449
H          0.74958       -3.96911        0.77038
H          0.21378       -5.95103       -0.96247
H          0.09215       -4.85381       -3.37195
Fe         1.30522        2.14262       -0.90762
C          2.98931        2.81632        0.08936
C          2.14686        1.99810        0.93920
C          0.84467        2.62437        1.02852
C          0.85761        3.82617        0.21703
C          2.16656        3.90623       -0.40748
H          4.03158        2.61564       -0.16789
H          2.44896        1.08609        1.45809
H          0.03225        2.27803        1.66969
H          0.04031        4.54071        0.09877
H          2.50681        4.70785       -1.06753
