87
-129.18726336
P         -1.49011       -0.28155       -0.11872
P          1.77485        0.41089        0.01487
C         -1.20864        0.90951       -1.43916
C          1.54610       -0.75222       -1.34563
C         -0.20804        0.70453       -2.38327
C          0.01058        1.69078       -3.36544
C         -0.78698        2.82268       -3.37680
C         -1.78081        3.00216       -2.43873
C         -1.98546        2.04205       -1.46777
C          2.29280       -1.90533       -1.31548
C          2.12839       -2.87115       -2.28831
C          1.20330       -2.67778       -3.29079
C          0.43453       -1.52767       -3.33979
C          0.61123       -0.53651       -2.35448
Cl         1.40700        0.76109        3.19294
Cl        -1.29008       -1.11510        2.98714
H         -2.39002        3.89094       -2.45754
H         -2.75630        2.17781       -0.72758
H          3.01065       -2.05363       -0.52615
H          2.71605       -3.77407       -2.25925
H         -0.61639        3.57321       -4.12989
H          1.06531       -3.43066       -4.04825
C         -1.88671       -4.51307       -1.71746
C         -2.58762       -3.48310       -2.32921
C         -2.46048       -2.19725       -1.81500
C         -1.64809       -1.95855       -0.73115
C         -0.96318       -2.98592       -0.12586
C         -1.07963       -4.26970       -0.62361
H         -1.98210       -5.51276       -2.10586
C         -3.47257       -3.75698       -3.49401
H         -2.99163       -1.37736       -2.27026
H         -0.34811       -2.78164        0.73542
H         -0.54245       -5.07889       -0.15672
C         -5.19143        0.87164        2.27403
C         -4.06676        1.67112        2.32329
C         -2.94372        1.32686        1.59534
C         -2.95401        0.18794        0.82361
C         -4.07224       -0.61161        0.77584
C         -5.21316       -0.27725        1.49555
H         -6.06408        1.13217        2.84843
H         -4.06070        2.55867        2.93456
H         -2.05565        1.93732        1.63443
H         -4.05907       -1.50935        0.18173
C         -6.41134       -1.15955        1.46846
C          5.59204       -0.55393        2.30748
C          5.52608        0.58620        1.53134
C          4.36946        0.87965        0.83397
C          3.28867        0.03315        0.91699
C          3.35189       -1.10208        1.69230
C          4.50867       -1.41702        2.39479
H          6.48837       -0.77968        2.85970
H          6.37312        1.24999        1.47324
H          4.30168        1.77126        0.23285
H          2.49057       -1.74516        1.76923
C          4.55788       -2.62627        3.26067
C          1.59603        4.76330       -1.27370
C          2.46281        3.89529       -1.90853
C          2.52866        2.57253       -1.51147
C          1.72947        2.13320       -0.48235
C          0.87800        2.99903        0.16402
C          0.79684        4.33041       -0.22437
H          1.53147        5.78964       -1.59253
H          3.07994        4.24519       -2.71975
H          3.18446        1.87581       -2.00956
H          0.26663        2.64060        0.97445
C         -0.16669        5.24980        0.43915
Pd         0.10811       -0.08292        1.56956
C          1.08254        1.54727       -4.38943
C         -0.55841       -1.36612       -4.43826
H          1.65576        2.47064       -4.48329
H          1.78194        0.75235       -4.12845
H          0.65790        1.31660       -5.36720
H         -1.08977       -2.30070       -4.62221
H         -1.30322       -0.60737       -4.19600
H         -0.06695       -1.07355       -5.36683
H         -4.39406       -4.24523       -3.17381
H         -3.74390       -2.83554       -4.01131
H         -2.97809       -4.40942       -4.21524
H         -6.49444       -1.68058        0.51351
H         -6.35576       -1.91055        2.25770
H         -7.32735       -0.58502        1.61332
H          4.14685       -2.41034        4.24779
H          3.97889       -3.44281        2.82668
H          5.58213       -2.97841        3.39087
H         -1.15407        5.16946       -0.01784
H         -0.26695        5.01306        1.49941
H          0.15862        6.28800        0.36004
