111
-148.55382409
P         -1.69354        2.83526        0.11605
P         -0.51237       -0.06843        0.51027
C         -1.60225        2.11510        1.78009
C         -1.15932        0.81908        1.94050
C         -0.54908        4.27866       -0.04172
C          0.50648        3.99970       -1.09139
C         -1.94984        2.86348        2.88658
H         -2.26089        3.88741        2.75975
C         -1.87646        2.30181        4.14960
H         -2.15185        2.88477        5.01329
C         -1.44582        0.99811        4.30534
H         -1.38358        0.56300        5.28920
C         -1.07564        0.25744        3.19727
H         -0.70422       -0.74944        3.30365
Pd        -1.36425        1.05821       -1.32282
Cl        -2.63764        2.02568       -2.88743
Cl        -0.73782       -0.73012       -2.53662
C         -1.48879        5.45129       -0.39194
C         -3.31194        3.67148       -0.21432
H          1.17922        4.85113       -1.21908
H          1.10982        3.12703       -0.83163
H          0.04188        3.79637       -2.05852
H         -1.42850        5.63782       -1.47288
H         -1.13727        6.37878        0.08452
H         -3.53471        3.48833       -1.27337
C         -2.96660        5.15678       -0.00583
C         -4.43127        3.14096        0.65579
H         -0.09906        4.42091        0.94947
H         -3.13372        5.41724        1.04825
H         -3.65765        5.79384       -0.57898
H         -4.22363        3.31100        1.71259
H         -5.38022        3.63088        0.42617
H         -4.56301        2.06539        0.51728
C         -0.85857       -4.60417        0.58323
C          0.15902       -3.96231        1.33486
C          0.23435       -2.57973        1.28885
C         -0.69915       -1.84413        0.60597
C         -1.75277       -2.45365       -0.02251
C         -1.88057       -3.83284       -0.02698
O         -0.82883       -6.01268        0.40330
C          1.19883       -4.73841        2.15818
H          1.04335       -2.05573        1.76877
H         -2.46022       -1.83300       -0.54512
C         -3.08210       -4.46743       -0.74390
C          3.81374        1.18929       -0.15370
C          3.27507        0.10054       -0.88631
C          1.95205       -0.24418       -0.66896
C          1.20588        0.38651        0.28986
C          1.75027        1.37310        1.06966
C          3.06446        1.77395        0.89950
O          5.08516        1.72079       -0.49763
C          4.08126       -0.68409       -1.93244
H          1.47031       -0.99394       -1.27207
H          1.12663        1.83895        1.81166
C          3.65206        2.84149        1.83638
C          1.64363       -3.91287        3.38700
C          0.61386       -6.05754        2.69484
C          2.43075       -5.02075        1.28485
C         -4.31389       -3.53645       -0.67332
C         -2.72504       -4.69488       -2.22086
C         -3.48711       -5.79738       -0.08292
C         -0.07375       -6.43387       -0.72610
H          2.28337       -4.50585        4.04025
H          2.21323       -3.03126        3.09707
H          0.78087       -3.58824        3.96816
H         -0.28629       -5.86840        3.27873
H          0.34979       -6.73365        1.88574
H          1.33062       -6.57303        3.33360
H          2.87666       -4.08955        0.93666
H          3.18854       -5.56905        1.84390
H          2.16745       -5.60900        0.40898
H         -4.17010       -2.63174       -1.26205
H         -5.19892       -4.03573       -1.06705
H         -4.52285       -3.24744        0.35633
H         -2.46136       -3.75317       -2.70187
H         -1.87570       -5.36613       -2.32220
H         -3.56427       -5.12877       -2.76374
H         -4.37800       -6.21318       -0.55292
H         -2.69635       -6.53877       -0.16501
H         -3.69883       -5.65079        0.97567
H         -0.71295       -7.00136       -1.40230
H          0.33667       -5.57098       -1.25227
H          0.73980       -7.08271       -0.40222
C          5.03739        2.74103       -1.48729
C          5.57737       -0.72046       -1.57219
C          3.60007       -2.15219       -1.99738
C          3.88081       -0.04006       -3.31257
C          3.44643        4.23542        1.22485
C          2.95230        2.80498        3.21427
C          5.15027        2.58850        2.08373
H          5.72172       -1.13824       -0.57637
H          6.13632       -1.33125       -2.28071
H          6.01315        0.27522       -1.58157
H          4.24871       -2.74400       -2.64278
H          3.60924       -2.60601       -1.00697
H          2.59156       -2.23041       -2.40039
H          2.82664       -0.04384       -3.58904
H          4.21979        0.99318       -3.31865
H          4.43329       -0.58115       -4.08023
H          2.38583        4.44829        1.09905
H          3.86949        5.00862        1.86564
H          3.91881        4.31294        0.24888
H          1.91522        3.13127        3.14825
H          2.97023        1.79877        3.63217
H          3.45170        3.46919        3.91924
H          5.55637        3.30510        2.79720
H          5.72388        2.67849        1.16439
H          5.30986        1.58658        2.48077
H          4.00432        2.95521       -1.76425
H          5.50615        3.64572       -1.10029
H          5.59103        2.42269       -2.37030
