111
-148.55520030
P         -2.63634        1.96825        0.45063
P          0.12406        0.44008        0.50767
C         -1.78883        1.70602        2.03332
C         -0.55670        1.08869        2.04451
C         -3.52960        3.58877        0.41246
C         -2.76948        4.63109       -0.37819
C         -2.36362        2.11311        3.22047
H         -3.33613        2.57696        3.21105
C         -1.69512        1.90774        4.41523
H         -2.14319        2.22552        5.34254
C         -0.45695        1.29415        4.42180
H          0.06146        1.13193        5.35245
C          0.11243        0.87798        3.23179
H          1.06920        0.37956        3.21901
Pd        -1.07461        1.47742       -1.17895
Cl        -2.47550        2.35652       -2.69177
Cl         0.55018        0.90720       -2.62185
C         -4.90069        3.20260       -0.17196
C         -4.04448        0.80669        0.13996
H         -2.63487        4.31315       -1.41257
H         -3.30082        5.58549       -0.39463
H         -1.77616        4.80220        0.04346
H         -4.86364        3.32004       -1.26386
H         -5.67724        3.90125        0.17512
H         -3.89421        0.41326       -0.87444
C         -5.27482        1.73342        0.17806
C         -4.07012       -0.31708        1.15329
H         -3.64031        3.90735        1.45664
H         -5.71254        1.69808        1.18514
H         -6.05838        1.35691       -0.49688
H         -4.91792       -0.98590        0.98765
H         -3.15674       -0.91305        1.10547
H         -4.15065        0.07773        2.16775
C         -1.38865       -3.81589       -0.07034
C         -0.88144       -3.08687       -1.17599
C         -0.43633       -1.79570       -0.95724
C         -0.42033       -1.25396        0.29995
C         -0.80049       -1.99419        1.38801
C         -1.25354       -3.29452        1.24224
O         -2.06961       -5.04406       -0.28171
C         -0.85039       -3.65105       -2.60413
H         -0.10739       -1.17765       -1.77417
H         -0.75503       -1.53330        2.35892
C         -1.62342       -4.10000        2.49716
C          4.65016        0.69994        0.12467
C          4.02936       -0.55326        0.36031
C          2.64922       -0.58991        0.46341
C          1.90423        0.55900        0.41294
C          2.50579        1.78364        0.29198
C          3.88302        1.89216        0.18290
O          6.03002        0.75739       -0.20690
C          4.81768       -1.86824        0.46345
H          2.13081       -1.52730        0.56777
H          1.87801        2.65788        0.26715
C          4.51750        3.28854        0.08779
C          0.33214       -3.05121       -3.39934
C         -0.65710       -5.17803       -2.59550
C         -2.15947       -3.28494       -3.32002
C         -0.74384       -3.67355        3.69471
C         -3.09546       -3.84110        2.85249
C         -1.38600       -5.60564        2.28117
C         -3.47065       -4.89878       -0.47837
H          1.26822       -3.17722       -2.85589
H          0.43715       -3.54261       -4.36625
H          0.19030       -1.98949       -3.59518
H         -0.57212       -5.56801       -3.60949
H          0.24770       -5.44696       -2.05142
H         -1.49456       -5.68137       -2.11894
H         -3.02074       -3.70329       -2.80442
H         -2.28850       -2.20335       -3.35664
H         -2.16365       -3.66036       -4.34292
H         -0.91097       -4.32808        4.54985
H          0.31357       -3.72412        3.43594
H         -0.96914       -2.65915        4.02051
H         -3.26399       -2.78282        3.05032
H         -3.75500       -4.13492        2.03931
H         -3.38655       -4.40025        3.74132
H         -1.58532       -6.16866        3.19263
H         -2.03279       -6.00179        1.50240
H         -0.35418       -5.79269        1.98554
H         -4.00768       -5.45870        0.28709
H         -3.75539       -3.84705       -0.42641
H         -3.74705       -5.30183       -1.45253
C          6.29371        0.66565       -1.60142
C          4.08999       -2.86846        1.39136
C          4.93944       -2.49706       -0.93301
C          6.21470       -1.63346        1.06579
C          5.92326        3.30491        0.71540
C          4.58971        3.71282       -1.38697
C          3.67017        4.32665        0.85815
H          4.70704       -3.74859        1.57090
H          3.86925       -2.41219        2.35603
H          3.15536       -3.21825        0.95524
H          5.48332       -3.44036       -0.89062
H          3.95351       -2.69408       -1.35359
H          5.46470       -1.83661       -1.61867
H          6.13637       -1.14990        2.03894
H          6.74840       -2.57451        1.19643
H          6.82151       -0.99773        0.42604
H          5.88574        2.96334        1.74928
H          6.60739        2.65582        0.17471
H          6.34542        4.30948        0.70498
H          5.01988        4.70903       -1.48646
H          5.19987        3.02404       -1.96606
H          3.59516        3.72769       -1.83221
H          4.18179        5.28790        0.90144
H          3.48972        3.99729        1.88111
H          2.70824        4.49876        0.37767
H          6.92037       -0.20373       -1.79941
H          5.36065        0.57661       -2.15937
H          6.83153        1.55439       -1.93113
