111
-148.55094683
P         -2.65211        1.82206        0.66181
P          0.24709        0.50280        0.38272
C         -1.62837        1.52663        2.13455
C         -0.35349        1.01780        2.00373
C         -3.77770        3.26899        0.93947
C         -3.61830        4.32626       -0.13028
C         -2.12749        1.80789        3.39093
H         -3.13191        2.18413        3.49438
C         -1.34462        1.58935        4.51136
H         -1.73546        1.80998        5.49128
C         -0.06526        1.08669        4.37567
H          0.54372        0.91342        5.24765
C          0.42891        0.79440        3.11759
H          1.41801        0.38211        2.99671
Pd        -1.15407        1.62411       -1.09299
Cl        -2.76904        2.42806       -2.41927
Cl         0.38455        1.22850       -2.68051
C         -5.17639        2.61664        0.97078
C         -3.89288        0.48668        0.34440
H         -3.91027        3.93337       -1.10473
H         -4.24448        5.19871        0.07067
H         -2.58174        4.66251       -0.20626
H         -5.91788        3.32012        0.56480
H         -5.48175        2.43458        2.01168
H         -3.60446       -0.00109       -0.59710
C         -5.20862        1.27516        0.18460
C         -3.91006       -0.51629        1.47713
H         -3.51459        3.68906        1.91927
H         -6.05327        0.65224        0.51368
H         -5.38976        1.48363       -0.88026
H         -2.93048       -0.97981        1.60877
H         -4.17173       -0.02960        2.41853
H         -4.63874       -1.31088        1.29974
C         -1.47449       -3.64918       -0.34697
C         -1.14649       -2.81861       -1.44847
C         -0.60538       -1.57289       -1.18776
C         -0.34476       -1.16509        0.09313
C         -0.55292       -2.00839        1.15274
C         -1.07363       -3.27747        0.96241
O         -2.24344       -4.82578       -0.54960
C         -1.42644       -3.21756       -2.90485
H         -0.39498       -0.88486       -1.98718
H         -0.32422       -1.65141        2.14169
C         -1.22873       -4.20861        2.17469
C          4.79309        0.61550        0.13402
C          4.13813       -0.50037        0.71424
C          2.75511       -0.48449        0.78502
C          2.03043        0.55252        0.25716
C          2.65335        1.58552       -0.39197
C          4.03297        1.62437       -0.51171
O          6.20551        0.73558        0.22513
C          4.90370       -1.70523        1.28329
H          2.21892       -1.29014        1.25637
H          2.04042        2.35985       -0.81959
C          4.68046        2.75065       -1.33322
C         -2.83311       -2.73903       -3.29625
C         -0.40044       -2.56108       -3.85685
C         -1.30876       -4.74013       -3.09702
C         -1.11594       -5.68655        1.75869
C         -0.10735       -3.94586        3.20565
C         -2.58555       -3.95013        2.84730
C         -3.64680       -4.62081       -0.44283
H         -2.91504       -1.65740       -3.19012
H         -3.05896       -2.99483       -4.33105
H         -3.59343       -3.19163       -2.66410
H         -0.52966       -1.48099       -3.90738
H          0.61849       -2.76970       -3.53202
H         -0.51376       -2.94343       -4.87095
H         -2.05799       -5.27240       -2.51635
H         -1.44584       -5.01495       -4.14255
H         -0.32786       -5.09205       -2.77929
H         -0.17503       -5.86827        1.24035
H         -1.15692       -6.34273        2.62774
H         -1.92467       -5.97408        1.09163
H          0.87316       -4.00533        2.73409
H         -0.20560       -2.96556        3.66949
H         -0.13844       -4.68340        4.00731
H         -2.65263       -2.92073        3.19823
H         -3.40731       -4.11856        2.15515
H         -2.72717       -4.60713        3.70502
H         -4.13100       -4.91646       -1.37345
H         -4.04746       -5.23796        0.36111
H         -3.86377       -3.57163       -0.23812
C          6.65483        1.45053        1.36922
C          6.19234       -1.96893        0.48346
C          5.24017       -1.44266        2.75895
C          4.04715       -2.98929        1.19525
C          3.73631        3.20489       -2.47031
C          4.96293        3.95232       -0.41931
C          5.98343        2.27212       -1.99938
H          6.88707       -1.13663        0.56531
H          6.70287       -2.86103        0.84540
H          5.96565       -2.11234       -0.57248
H          5.86208       -0.55774        2.86993
H          4.33124       -1.28379        3.33889
H          5.77510       -2.28666        3.19368
H          3.19201       -2.94992        1.86832
H          3.67950       -3.14194        0.18084
H          4.63270       -3.86498        1.47434
H          3.40666        2.35255       -3.06386
H          2.85440        3.71347       -2.08411
H          4.24107        3.90297       -3.13766
H          5.64186        3.68400        0.38653
H          5.41268        4.77159       -0.97966
H          4.04102        4.31807        0.03216
H          5.79834        1.39238       -2.61484
H          6.73449        2.00862       -1.25891
H          6.40668        3.04878       -2.63585
H          7.22445        2.32463        1.05426
H          5.80682        1.76801        1.97729
H          7.31029        0.81380        1.96318
