64
-97.21398775
Cl        -1.55432       -1.31994       -2.59119
Cl         1.64634       -1.26063       -2.89552
P          1.95097       -0.62506        0.27063
C          2.15657       -2.29978        1.03481
C          3.73726       -0.20232       -0.02245
P         -1.27821       -0.14354        0.43327
C          1.26152        0.59261        1.44676
C         -0.16552        0.83991        1.50621
C         -0.40182        1.94197        2.42773
C          0.89247        2.41712        2.88358
C          1.91958        1.58220        2.28510
H         -1.37461        2.32421        2.74291
H          1.06238        3.23395        3.58895
Pd         0.18460       -0.93514       -1.23187
H          2.99691        1.67529        2.43680
C         -5.04103        2.05379       -0.93406
C         -4.09406        2.73028       -0.19187
C         -2.95078        2.07561        0.22673
C         -2.75001        0.75323       -0.10059
C         -3.69750        0.07737       -0.83555
C         -4.84486        0.72593       -1.25587
H         -5.93303        2.56209       -1.26231
H         -4.24444        3.76714        0.06077
H         -2.20792        2.59937        0.80123
H         -3.53224       -0.95767       -1.08700
H         -5.58152        0.19506       -1.83626
C         -2.58776       -3.96807        2.50287
C         -2.37690       -2.82162        3.24450
C         -1.98624       -1.65428        2.61283
C         -1.80776       -1.64633        1.24890
C         -2.02353       -2.78285        0.50469
C         -2.41381       -3.95088        1.13260
H         -2.89162       -4.87785        2.99450
H         -2.51473       -2.83558        4.31320
H         -1.81178       -0.75072        3.17536
H         -1.89414       -2.74391       -0.56517
H         -2.58291       -4.84369        0.55331
C          4.12057       -0.26479       -1.48470
H          3.89251        0.81086        0.37067
C          4.47751       -1.24897        0.83330
H          4.64938       -0.85264        1.84482
C          3.66965       -2.57047        0.92815
H          5.47636       -1.43344        0.41150
C          1.64461       -2.29260        2.45886
H          1.58143       -3.00604        0.42039
H          3.99934       -3.16599        1.79164
H          3.87875       -3.18982        0.04383
H          1.75950       -3.27039        2.93259
H          2.19322       -1.56457        3.05979
H          0.58851       -2.02035        2.50002
H          5.18170       -0.05074       -1.62965
H          3.92688       -1.26029       -1.88718
H          3.55207        0.44674       -2.08522
Fe         0.77845        2.47914        0.84900
C          1.30742        2.24940       -1.12867
C          2.16753        3.20569       -0.45739
C          1.35590        4.31674        0.01142
C         -0.02808        4.00022       -0.29212
C         -0.05498        2.71802       -0.97556
H          1.61381        1.34564       -1.65802
H          3.25757        3.15178       -0.40665
H          1.71752        5.21203        0.52096
H         -0.89277        4.63193       -0.07688
H         -0.93815        2.23237       -1.39605
