105
-153.05973904
Cl         0.25843        3.16244        2.39374
Pd        -0.21589        1.76806        0.68548
P         -0.67296        0.43126       -1.22834
N          0.43593       -0.85201       -1.71859
C          0.46570       -2.22944       -1.45256
C         -0.03852       -2.84241       -0.26837
C          0.22227       -4.21172       -0.04004
C         -0.12293       -4.81506        1.30262
C          0.67285       -6.08868        1.62092
C          0.58511       -7.07394        0.45209
C          1.15526       -6.45493       -0.83507
C          0.86768       -4.98187       -1.01102
C          1.31231       -4.36884       -2.17467
C          1.13980       -3.02521       -2.37780
H          1.52314       -2.55946       -3.26931
H          1.82638       -4.96212       -2.91207
H          2.24261       -6.59622       -0.85698
H          1.09938       -8.01417        0.69616
H          1.72340       -5.82569        1.79718
H          0.03968       -4.06419        2.08607
C         -0.66542       -2.06014        0.83394
C          0.16363       -1.20116        1.60542
C         -0.35168       -0.59454        2.74997
C         -1.65582       -0.80609        3.11609
C         -2.49580       -1.62572        2.36763
C         -3.91547       -1.81294        2.85364
C         -4.81752       -2.67202        1.94681
C         -4.02148       -3.77973        1.24874
C         -2.89491       -3.16003        0.41261
C         -1.99896       -2.26419        1.22757
H         -2.31043       -3.93269       -0.09908
H         -4.67497       -4.41032        0.62946
H         -5.28391       -2.03401        1.18610
H         -4.36406       -0.82197        2.99876
H         -2.04995       -0.32098        3.99295
H          0.27425        0.07585        3.31116
N          1.40889       -0.86294        1.06795
P          1.88018        0.80907        1.07029
C          2.70429        1.16535       -0.48192
C          2.43118        2.34235       -1.13819
C          2.90200        2.53580       -2.42321
C          3.63414        1.54562       -3.06358
C          3.92111        0.37469       -2.37513
C          3.45702        0.18538       -1.08557
H          3.64274       -0.73984       -0.56262
H          4.50102       -0.39272       -2.85907
C          4.12965        1.75023       -4.45264
H          2.68101        3.45039       -2.94657
H          1.82782        3.09533       -0.65605
C          2.84279        1.24806        2.51049
C          3.05767        0.29313        3.47493
C          3.79267        0.60939        4.60355
C          4.31101        1.88672        4.77137
C          4.09320        2.83261        3.77782
C          3.35863        2.51383        2.64983
H          3.17804        3.24789        1.88055
H          4.50063        3.82234        3.89396
C          5.12041        2.22290        5.97534
H          3.96823       -0.13530        5.36095
H          2.65308       -0.69646        3.33381
H          1.33710       -0.95346        0.05547
H          1.27458       -0.40953       -2.08128
C         -0.54400        1.67099       -2.52527
C         -0.99513        2.95402       -2.32688
C         -0.86006        3.89726       -3.32722
C         -0.27349        3.56134       -4.53971
C          0.14745        2.25342       -4.73636
C          0.01189        1.31320       -3.73099
H          0.33867        0.29813       -3.88508
H          0.58549        1.97641       -5.68002
C         -0.13880        4.57208       -5.62469
H         -1.21098        4.90311       -3.17160
H         -1.45929        3.20998       -1.38940
C         -2.32926       -0.23842       -1.40095
C         -2.50868       -1.17487       -2.39233
C         -3.77114       -1.68242       -2.64798
C         -4.86644       -1.24742       -1.91390
C         -4.66735       -0.29887       -0.91996
C         -3.40612        0.20795       -0.67351
H         -3.26281        0.97642        0.06520
H         -5.50924        0.04771       -0.34527
C         -6.21794       -1.82397       -2.15361
H         -3.91041       -2.42529       -3.41455
H         -1.65457       -1.50732       -2.96090
Cl        -2.25634        2.71610        0.64526
H          0.77484       -6.99157       -1.71358
H          0.32190       -6.55170        2.55408
H         -0.46528       -7.34796        0.29112
H         -1.19312       -5.04459        1.33195
H         -3.58942       -4.44805        2.00380
H         -3.33446       -2.56318       -0.39013
H         -3.87413       -2.26108        3.85373
H         -5.65321       -3.09794        2.51952
H          4.17140        0.80623       -4.99785
H          3.47548        2.42361       -5.00845
H          5.13143        2.18175       -4.44739
H          5.05738        3.28679        6.20810
H          4.77127        1.67225        6.84994
H          6.17079        1.97436        5.81778
H         -0.02960        5.57724       -5.21506
H          0.73691        4.37053       -6.24332
H         -1.01715        4.56550       -6.27147
H         -6.36570       -2.72467       -1.55604
H         -7.00216       -1.11295       -1.89012
H         -6.35151       -2.09019       -3.20302
