111
-148.55151084
P         -1.51942        2.67510        1.11447
P         -0.49513       -0.25926        0.52035
C         -1.15899        1.54631        2.49502
C         -0.78915        0.24399        2.22746
C         -0.31084        4.06802        1.04123
C          0.40837        4.07733       -0.29086
C         -1.20855        1.98685        3.80234
H         -1.43897        3.01837        4.00834
C         -0.92411        1.11352        4.83786
H         -0.96795        1.45809        5.85817
C         -0.57569       -0.19545        4.56620
H         -0.34869       -0.87364        5.37227
C         -0.49552       -0.62805        3.25499
H         -0.18524       -1.63462        3.02269
Pd        -1.66216        1.28765       -0.73356
Cl        -2.61278        3.02468       -1.79112
Cl        -1.70326       -0.14394       -2.46119
C         -1.19320        5.30934        1.29178
C         -3.11702        3.61193        1.22159
H         -0.30469        4.18387       -1.11073
H          1.11875        4.90475       -0.35800
H          0.95919        3.14814       -0.45367
H         -0.78762        6.16537        0.73292
H         -1.14054        5.59731        2.35215
H         -3.75643        3.20955        0.42390
C         -2.67781        5.05639        0.90201
C         -3.80851        3.46476        2.56027
H          0.39909        3.91307        1.86438
H         -3.34122        5.76572        1.41817
H         -2.80878        5.25556       -0.17191
H         -3.22329        3.93214        3.35267
H         -4.78874        3.94707        2.55792
H         -3.95044        2.41379        2.82155
C         -0.70440       -4.76117       -0.12685
C         -1.81116       -3.94977       -0.49438
C         -1.73752       -2.58853       -0.24697
C         -0.59527       -2.02376        0.25640
C          0.52084       -2.78416        0.49174
C          0.51490       -4.15169        0.27157
O         -0.83976       -6.17273       -0.08509
C         -3.07238       -4.48826       -1.19132
H         -2.57512       -1.94664       -0.46161
H          1.41032       -2.29145        0.84795
C          1.83927       -4.91444        0.44437
C          3.58850        1.31260       -0.74761
C          3.20684        1.36979        0.61739
C          1.97435        0.85221        0.97707
C          1.12029        0.34641        0.03281
C          1.44126        0.38274       -1.29810
C          2.64945        0.90196       -1.72814
O          4.91828        1.64020       -1.12401
C          4.12140        1.96197        1.70055
H          1.66277        0.83705        2.00631
H          0.70806        0.02757       -2.00131
C          2.91097        1.02011       -3.23758
C         -3.41672       -3.58261       -2.39505
C         -2.87410       -5.91101       -1.74259
C         -4.24796       -4.48144       -0.20089
C          2.97494       -4.13651       -0.25834
C          2.16528       -5.03995        1.94150
C          1.79370       -6.31503       -0.19079
C         -1.30403       -6.64193        1.16947
H         -3.68871       -2.57634       -2.08149
H         -2.56645       -3.50384       -3.07182
H         -4.25849       -3.98580       -2.95732
H         -3.74214       -6.23496       -2.31626
H         -2.00119       -5.95264       -2.39311
H         -2.72503       -6.62776       -0.93842
H         -4.43472       -3.47605        0.17511
H         -5.16107       -4.83627       -0.67813
H         -4.04492       -5.12374        0.65406
H          3.90929       -4.69611       -0.22213
H          2.72917       -3.95995       -1.30516
H          3.15769       -3.17146        0.21140
H          1.39159       -5.59708        2.46655
H          3.11235       -5.55761        2.09171
H          2.24191       -4.05780        2.40709
H          1.08077       -6.95672        0.32174
H          1.49527       -6.25299       -1.23672
H          2.76813       -6.80055       -0.14279
H         -0.60272       -6.36403        1.95469
H         -2.27554       -6.20500        1.39527
H         -1.39583       -7.72773        1.13583
C          5.79603        0.52288       -1.17966
C          3.29343        2.49715        2.89071
C          5.06922        0.87000        2.21854
C          4.92980        3.14851        1.14513
C          3.52545       -0.29070       -3.75085
C          1.58870        1.27891       -3.99702
C          3.84271        2.20507       -3.54990
H          3.93289        3.01828        3.60280
H          2.53395        3.19929        2.54969
H          2.80009        1.69248        3.43402
H          5.72125        1.25779        3.00082
H          4.50465        0.03456        2.63206
H          5.69722        0.48256        1.42023
H          4.26417        3.90791        0.73592
H          5.53361        3.61108        1.92544
H          5.60306        2.83199        0.35202
H          2.85398       -1.12882       -3.56546
H          3.71437       -0.23997       -4.82283
H          4.46774       -0.50642       -3.25272
H          0.92803        0.41399       -3.96629
H          1.05720        2.12981       -3.57151
H          1.78141        1.49592       -5.04730
H          4.82736        2.06306       -3.11202
H          3.43082        3.13155       -3.15099
H          3.97459        2.32742       -4.62464
H          6.65590        0.70414       -0.53486
H          5.28136       -0.38239       -0.85491
H          6.15798        0.38948       -2.19881
