75
-122.80551157
P          1.91195       -0.51702       -0.09244
C          3.29413       -1.14847       -1.06278
C          4.15616       -2.05398       -0.48584
C          5.23299       -2.53822       -1.20634
C          5.44309       -2.10872       -2.50160
C          4.58222       -1.19451       -3.07479
C          3.50907       -0.71403       -2.34966
H          2.84338        0.01657       -2.77508
H          4.74812       -0.85230       -4.08313
H          6.28171       -2.48497       -3.06450
H          5.90647       -3.24900       -0.75636
H          3.98374       -2.37874        0.52757
C          1.63345       -1.64649        1.27246
C          1.95527       -1.27241        2.55663
C          1.82588       -2.18358        3.58878
C          1.38004       -3.46351        3.32398
C          1.05969       -3.83370        2.03273
C          1.18945       -2.92047        1.00182
H          0.95771       -3.19718       -0.01489
H          0.70820       -4.83139        1.82737
H          1.27522       -4.17334        4.12816
H          2.07122       -1.89377        4.59720
H          2.30795       -0.27106        2.74413
C          2.28459        1.14136        0.48943
C          3.48461        1.76460        0.23931
C          3.66897        3.09867        0.57650
C          2.59867        3.80268        1.12740
C          1.38725        3.19241        1.36776
C          1.23195        1.82803        1.07609
O          0.02535        1.15744        1.33082
C         -1.15333        1.83483        0.97952
C         -1.29562        3.21424        1.19750
C         -2.44359        3.84826        0.77720
C         -3.46644        3.14686        0.13987
C         -3.31277        1.78323       -0.06762
C         -2.18148        1.13227        0.36653
P         -1.82811       -0.61640        0.09664
C         -1.76169       -1.47227        1.68601
C         -1.36796       -0.82541        2.83504
C         -1.40124       -1.48405        4.04941
C         -1.82560       -2.79613        4.10776
C         -2.21285       -3.44841        2.95443
C         -2.18204       -2.78236        1.74247
H         -2.49502       -3.27791        0.83754
H         -2.54117       -4.47385        2.99739
H         -1.84815       -3.31345        5.05299
H         -1.08842       -0.97574        4.94663
H         -1.01807        0.19007        2.77622
C         -3.12124       -1.44745       -0.84052
C         -2.78645       -2.29483       -1.87140
C         -3.77923       -2.97125       -2.55644
C         -5.10077       -2.80674       -2.19239
C         -5.43050       -1.97592       -1.14015
C         -4.43514       -1.30032       -0.45767
H         -4.67560       -0.67821        0.38986
H         -6.46060       -1.85779       -0.84654
H         -5.87549       -3.33251       -2.72629
H         -3.52029       -3.62514       -3.37292
H         -1.74954       -2.42145       -2.13947
Pd        -0.02728       -0.05939       -1.37644
Cl        -1.66483        0.27199       -2.88358
Cl         1.30551        1.46855       -2.38447
H         -4.07088        1.23839       -0.60069
C         -4.67560        3.85457       -0.35882
H         -4.53679        4.17373       -1.39250
H         -4.89029        4.73950        0.24160
H         -5.55283        3.20735       -0.32112
H         -2.54344        4.90744        0.93635
S          0.00819        4.09839        2.01571
H          2.71103        4.84792        1.35564
C          4.95558        3.78275        0.28092
H          4.27439        1.21877       -0.24742
H          5.79439        3.08898        0.35093
H          4.94758        4.20114       -0.72630
H          5.13902        4.59694        0.98319
