111
-148.55527619
P         -2.71116        1.92201       -0.33608
P          0.05923        0.55920        0.34689
C         -1.93732        2.21304        1.27927
C         -0.70355        1.66149        1.54978
C         -3.57744        3.43671       -0.95387
C         -2.78385        4.13607       -2.03578
C         -2.57339        2.97593        2.23786
H         -3.54675        3.38936        2.03096
C         -1.96486        3.19061        3.46267
H         -2.46084        3.78636        4.21151
C         -0.72509        2.64098        3.72792
H         -0.25332        2.80614        4.68256
C         -0.09394        1.86879        2.76921
H          0.86512        1.41525        2.96531
Pd        -1.09112        0.89918       -1.62635
Cl        -2.42273        1.20863       -3.40502
Cl         0.56820       -0.08338       -2.78006
C         -4.94297        2.88574       -1.40370
C         -4.12513        0.72806       -0.29073
H         -1.79590        4.43163       -1.67472
H         -2.63515        3.48064       -2.89450
H         -3.29770        5.03197       -2.39183
H         -4.88500        2.62909       -2.47051
H         -5.71602        3.66563       -1.32817
H         -3.95582        0.02671       -1.11885
C         -5.34359        1.62229       -0.58878
C         -4.18768       -0.00700        1.03072
H         -3.70312        4.09648       -0.08604
H         -5.79750        1.92994        0.36328
H         -6.12128        1.04704       -1.11375
H         -5.03954       -0.68993        1.06862
H         -3.28043       -0.59007        1.20151
H         -4.28709        0.69509        1.86056
C         -1.21690       -3.73091        1.19046
C         -0.58314       -3.40389       -0.03770
C         -0.22639       -2.08507       -0.25609
C         -0.40054       -1.13237        0.71164
C         -0.88956       -1.46841        1.94644
C         -1.27126       -2.76818        2.23378
O         -1.86930       -4.98147        1.34108
C         -0.26133       -4.42287       -1.14290
H          0.17532       -1.77477       -1.20569
H         -0.98572       -0.69533        2.68901
C         -1.72196       -3.08301        3.66998
C          4.58274        0.96946        0.03628
C          3.74352        1.88576       -0.65241
C          2.37179        1.76250       -0.49923
C          1.83313        0.73211        0.22554
C          2.63477       -0.22760        0.78688
C          4.01373       -0.16343        0.67617
O          5.97375        1.22438        0.14853
C          4.26796        2.98320       -1.59393
H          1.70316        2.47114       -0.95863
H          2.16697       -1.04260        1.31303
C          4.83472       -1.34345        1.22315
C         -0.38903       -5.87665       -0.65662
C         -1.20381       -4.19400       -2.33640
C          1.19933       -4.22770       -1.60651
C         -1.77398       -4.59497        3.94982
C         -0.71251       -2.47384        4.66813
C         -3.10891       -2.46654        3.91747
C         -3.22217       -4.94622        0.91769
H          0.21983       -6.03933        0.23204
H         -1.41854       -6.11904       -0.40412
H         -0.06424       -6.57785       -1.42499
H         -2.24410       -4.33167       -2.04752
H         -1.09895       -3.18251       -2.72772
H         -0.98438       -4.89049       -3.14509
H          1.88448       -4.32068       -0.76455
H          1.47495       -4.97678       -2.34825
H          1.35373       -3.24999       -2.05980
H         -0.81879       -5.06257        3.71352
H         -2.00036       -4.79328        4.99719
H         -2.54024       -5.08071        3.35038
H         -0.96684       -2.74571        5.69229
H          0.29503       -2.83555        4.46447
H         -0.69693       -1.38646        4.61600
H         -3.08577       -1.38611        3.77849
H         -3.84879       -2.87421        3.23117
H         -3.44772       -2.66589        4.93377
H         -3.66680       -5.93257        1.05161
H         -3.77889       -4.21749        1.50473
H         -3.27774       -4.66545       -0.13293
C          6.29801        2.00743        1.28484
C          3.45349        2.96186       -2.90696
C          4.10688        4.35598       -0.92126
C          5.74260        2.76879       -1.97717
C          4.83729       -1.29617        2.75971
C          4.19536       -2.67113        0.75773
C          6.28367       -1.33679        0.70597
H          3.85958        3.67044       -3.62830
H          3.47844        1.97031       -3.35808
H          2.41111        3.22894       -2.74229
H          3.06342        4.54828       -0.67356
H          4.68296        4.41172        0.00050
H          4.44845        5.15448       -1.57942
H          5.89013        1.77293       -2.39358
H          6.06662        3.49930       -2.71803
H          6.39298        2.86780       -1.11123
H          5.29635       -0.37879        3.12355
H          3.82173       -1.33851        3.15232
H          5.39278       -2.13707        3.17417
H          4.80337       -3.52294        1.06128
H          3.20302       -2.81452        1.18207
H          4.10430       -2.69286       -0.32789
H          6.81990       -2.22950        1.02701
H          6.83039       -0.47316        1.07731
H          6.30261       -1.30114       -0.38273
H          7.37582        2.16852        1.31471
H          5.79131        2.96977        1.23204
H          5.98509        1.49477        2.19313
