105
-153.07046387
Cl         0.39780        1.95389        3.03615
Pd        -0.36107        1.45434        0.97217
P         -1.20236        0.73079       -1.05870
N         -0.21552       -0.41299       -1.95020
C          0.35476       -1.64823       -1.67589
C          0.27971       -2.30199       -0.42042
C          0.99946       -3.49856       -0.21858
C          0.91133       -4.17886        1.12661
C          1.99403       -5.24244        1.36626
C          2.14478       -6.15389        0.14491
C          2.52582       -5.33937       -1.10083
C          1.74272       -4.05980       -1.25930
C          1.76867       -3.42236       -2.49222
C          1.09425       -2.24693       -2.69572
H          1.15194       -1.75315       -3.65021
H          2.34725       -3.85519       -3.29078
H          3.59332       -5.09170       -1.06759
H          2.88417       -6.94420        0.33750
H          2.95178       -4.74677        1.56863
H          0.96259       -3.41493        1.91190
C         -0.69563       -1.89327        0.61941
C         -0.25377       -1.27795        1.82347
C         -1.17876       -1.10457        2.85791
C         -2.48123       -1.50876        2.71731
C         -2.92246       -2.13981        1.56028
C         -4.35234       -2.62643        1.51950
C         -4.77323       -3.30719        0.20488
C         -3.61617       -4.09186       -0.41975
C         -2.42279       -3.16507       -0.69036
C         -2.02151       -2.35194        0.51530
H         -1.56349       -3.75270       -1.03614
H         -3.93733       -4.59822       -1.34108
H         -5.11136       -2.54733       -0.50837
H         -5.01403       -1.77773        1.73391
H         -3.17980       -1.35296        3.52193
H         -0.85876       -0.61546        3.76103
N          1.05856       -0.81620        1.99467
P          1.71729        0.25972        0.75711
C          2.91847       -0.62102       -0.24271
C          3.25609       -0.19233       -1.50396
C          4.22473       -0.87277       -2.21906
C          4.86500       -1.97687       -1.67123
C          4.53537       -2.36968       -0.38119
C          3.56261       -1.69081        0.33011
H          3.29242       -1.99280        1.32958
H          5.04040       -3.21122        0.06112
C          5.91131       -2.70451       -2.44083
H          4.48868       -0.55027       -3.21173
H          2.76257        0.66729       -1.92515
C          2.67044        1.60773        1.46650
C          3.45809        1.38199        2.56930
C          4.20100        2.41914        3.10390
C          4.15718        3.68570        2.53633
C          3.37129        3.88623        1.40933
C          2.62994        2.84854        0.87481
H          2.01668        3.00244        0.00094
H          3.34189        4.86112        0.95346
C          4.97066        4.79797        3.10069
H          4.81967        2.25031        3.96866
H          3.49097        0.39696        3.00654
H          1.24400       -0.35602        2.87660
H         -0.23532       -0.11811       -2.91890
C         -1.02116        2.30021       -1.91101
C          0.24298        2.69107       -2.28276
C          0.43250        3.91540       -2.89768
C         -0.64667        4.75291       -3.14676
C         -1.91408        4.34483       -2.75221
C         -2.10032        3.12110       -2.13593
H         -3.08105        2.80849       -1.81643
H         -2.75410        4.99604       -2.92367
C         -0.44366        6.08470       -3.78126
H          1.42190        4.22918       -3.18365
H          1.07581        2.03688       -2.08393
C         -2.92869        0.27076       -1.21031
C         -3.34461       -0.31088       -2.38457
C         -4.68119       -0.62039       -2.56530
C         -5.61037       -0.34286       -1.57184
C         -5.17476        0.26566       -0.40279
C         -3.83917        0.57296       -0.22618
H         -3.50720        1.08379        0.66129
H         -5.89033        0.50694        0.36459
C         -7.05213       -0.65712       -1.77124
H         -5.01069       -1.07771       -3.48251
H         -2.62128       -0.51770       -3.15724
Cl        -2.15673        2.77133        1.23086
H          2.39576       -5.94739       -2.00529
H          1.77128       -5.83146        2.26716
H          1.19667       -6.67566       -0.03681
H         -0.08216       -4.63249        1.22331
H         -3.30695       -4.89113        0.26545
H         -2.65838       -2.48486       -1.51444
H         -4.49775       -3.32430        2.35290
H         -5.64249       -3.96030        0.36565
H          6.89206       -2.25355       -2.28386
H          5.96851       -3.75043       -2.13594
H          5.69766       -2.68392       -3.51045
H          5.95896        4.82787        2.63994
H          4.49005        5.76237        2.93051
H          5.10393        4.68102        4.17706
H          0.43397        6.08334       -4.42920
H         -1.30407        6.36528       -4.39042
H         -0.30144        6.85641       -3.02353
H         -7.17987       -1.52706       -2.41707
H         -7.54219       -0.87600       -0.82142
H         -7.57162        0.18398       -2.23223
