171
-217.84194523
P         -1.57601        0.42694       -0.38445
P          1.57644       -0.42044       -0.38417
C         -0.85706        1.37755       -1.72868
C          0.85896       -1.35989       -1.73657
C         -0.07738        0.75309       -2.69554
C          0.55592        1.54673       -3.67144
C          0.35353        2.91674       -3.66576
C         -0.44774        3.51329       -2.71554
C         -1.04501        2.73814       -1.74113
C          1.04358       -2.72084       -1.75806
C          0.44807       -3.48743       -2.74027
C         -0.34767       -2.88197       -3.68953
C         -0.54685       -1.51147       -3.68594
C          0.08410       -0.72658       -2.70150
Cl         1.59360        0.42598        2.82632
Cl        -1.61987       -0.51196        2.76143
C         -1.41329       -0.89600       -4.72870
C          1.42891        0.94161       -4.71476
H         -0.60330        4.57964       -2.72942
H         -1.66289        3.19734       -0.98680
H          1.65734       -3.18707       -1.00467
H          0.60108       -4.55405       -2.76128
H          0.83388        3.51823       -4.41906
H         -0.82616       -3.47677       -4.44928
C         -3.92003       -3.25920       -1.54431
C         -2.94754       -3.36258       -0.55690
C         -2.21684       -2.22417       -0.24744
C         -2.45430       -1.04265       -0.90347
C         -3.42067       -0.95328       -1.87460
C         -4.17820       -2.06859       -2.21379
H         -4.51180       -4.12089       -1.78929
H         -1.47521       -2.25087        0.53251
H         -3.58953       -0.00064       -2.34721
C         -4.30914        2.90459        2.25616
C         -4.84560        1.84912        1.52685
C         -3.98919        1.12300        0.71160
C         -2.65892        1.44671        0.62709
C         -2.14445        2.48971        1.35566
C         -2.95943        3.23510        2.19720
H         -4.95641        3.47861        2.89053
H         -4.36108        0.28485        0.14821
H         -1.09427        2.71263        1.27667
C          4.29935       -2.91842        2.24788
C          2.94875       -3.24463        2.18570
C          2.13729       -2.49386        1.34548
C          2.65569       -1.44882        0.62268
C          3.98673       -1.12899        0.71111
C          4.83987       -1.86106        1.52444
H          4.94404       -3.49713        2.88059
H          1.08641       -2.71256        1.26458
H          4.36198       -0.28922        0.15245
C          3.93149        3.26798       -1.51411
C          2.95359        3.36863       -0.53171
C          2.21943        2.23006       -0.23113
C          2.45876        1.05100       -0.89105
C          3.42983        0.96451       -1.85762
C          4.19102        2.08001       -2.18782
H          4.52612        4.12972       -1.75187
H          1.47232        2.25546        0.54360
H          3.59934        0.01371       -2.33372
Pd         0.00320        0.00631        1.29216
C         -2.89043       -4.39634        1.72575
C         -2.68006       -4.65767        0.22183
C         -1.22959       -5.10461       -0.02732
C         -3.62496       -5.79337       -0.21413
H         -2.72055       -5.30229        2.30719
H         -2.20906       -3.63149        2.09583
H         -3.90769       -4.05618        1.91820
H         -0.99672       -6.00915        0.53418
H         -1.06857       -5.31218       -1.08455
H         -0.52505       -4.33051        0.27222
H         -3.42282       -6.70262        0.35193
H         -4.66705       -5.52331       -0.04402
H         -3.49557       -6.02754       -1.27064
C         -6.65556       -2.25478       -2.50779
C         -5.32230       -2.00105       -3.23530
C         -5.11281       -3.07333       -4.32115
C         -5.39478       -0.62130       -3.91849
H         -6.67016       -3.24029       -2.04355
H         -6.81325       -1.51444       -1.72364
H         -7.49544       -2.19826       -3.20002
H         -5.12754       -4.07689       -3.89812
H         -5.89741       -3.02115       -5.07582
H         -4.15511       -2.93639       -4.82163
H         -4.46440       -0.38879       -4.43532
H         -6.19737       -0.59664       -4.65549
H         -5.59264        0.16699       -3.19243
C         -6.94955        1.54384        0.19810
C         -6.32387        1.44242        1.60184
C         -7.11826        2.34966        2.56034
C         -6.42146       -0.00968        2.10740
H         -8.00451        1.27117        0.22018
H         -6.87096        2.56075       -0.18580
H         -6.44922        0.88124       -0.50716
H         -7.08826        3.38858        2.23244
H         -8.16453        2.04687        2.60093
H         -6.71970        2.29413        3.57317
H         -7.46133       -0.32354        2.19598
H         -5.92198       -0.70048        1.42891
H         -5.95329       -0.10778        3.08659
C         -2.10380        5.57775        2.03884
C         -2.35869        4.40108        2.99570
C         -1.02929        3.96190        3.64405
C         -3.30628        4.86576        4.11889
H         -1.65058        6.41877        2.56330
H         -1.43651        5.28425        1.22993
H         -3.03671        5.91973        1.59107
H         -1.17548        3.07353        4.25811
H         -0.27336        3.73087        2.89548
H         -0.62690        4.75003        4.28011
H         -2.83832        5.64341        4.72246
H         -4.22860        5.28077        3.71357
H         -3.56050        4.03786        4.78057
C          1.00970       -3.97293        3.62033
C          2.34385       -4.41080        2.98078
C          3.28457       -4.87327        4.11073
C          2.09683       -5.58831        2.02302
H          0.60479       -4.76077        4.25514
H          1.15061       -3.08335        4.23386
H          0.25787       -3.74444        2.86691
H          4.20904       -5.28987        3.71205
H          3.53538       -4.04380        4.77173
H          2.81263       -5.64912        4.71351
H          1.64085       -6.42944        2.54490
H          1.43496       -5.29591        1.20928
H          3.03319       -5.92964        1.58199
C          6.94825       -1.55648        0.20251
C          6.31892       -1.45808        1.60479
C          7.10852       -2.37017        2.56268
C          6.41865       -0.00784        2.11533
H          6.45088       -0.89102       -0.50215
H          8.00359       -1.28561        0.22827
H          6.86906       -2.57215       -0.18457
H          6.70646       -2.31778        3.57430
H          7.07808       -3.40781        2.23081
H          8.15510       -2.06915        2.60809
H          7.45904        0.30327        2.20753
H          5.92257        0.68640        1.43788
H          5.94831        0.08813        3.09369
C          3.63094        5.79761       -0.17612
C          2.68209        4.66137        0.24965
C          2.88178        4.39499        1.75413
C          1.23376        5.11055       -0.00786
H          3.42588        6.70512        0.39168
H          4.67162        5.52596       -0.00003
H          3.50877        6.03552       -1.23265
H          2.70889        5.29930        2.33722
H          2.19687        3.62986        2.11708
H          3.89730        4.05307        1.95256
H          0.99816        6.01406        0.55416
H          1.07998        5.32074       -1.06565
H          0.52637        4.33658        0.28529
C          5.14108        3.09446       -4.28383
C          5.34022        2.01444       -3.20372
C          5.41048        0.63882       -3.89553
C          6.67055        2.25789       -2.46748
H          4.18567        2.96459       -4.79054
H          5.15755        4.09526       -3.85438
H          5.92964        3.04384       -5.03446
H          5.60278       -0.15485       -3.17385
H          4.48125        0.41295       -4.41735
H          6.21579        0.61602       -4.62961
H          7.51384        2.20296       -3.15568
H          6.68636        3.24008       -1.99626
H          6.82130        1.51149       -1.68773
H         -1.75491        0.09573       -4.42918
H          0.90133        0.86169       -5.66613
H         -2.29731       -1.50792       -4.90940
H         -0.87692       -0.79862       -5.67349
H          1.76193       -0.05647       -4.42695
H          2.31814        1.55104       -4.87742
