171
-217.84255643
P         -1.62540        0.36464       -0.42941
P          1.57639       -0.41910       -0.31767
C         -0.88122        1.28280       -1.77951
C          0.90300       -1.42574       -1.64100
C         -0.06720        0.62820       -2.69722
C          0.57734        1.38907       -3.69200
C          0.35428        2.75461       -3.75133
C         -0.48243        3.37877       -2.85065
C         -1.09456        2.63718       -1.85970
C          1.12799       -2.78057       -1.61060
C          0.56431       -3.59975       -2.56839
C         -0.24198       -3.05214       -3.54352
C         -0.48233       -1.68856       -3.59002
C          0.12091       -0.84855       -2.63471
Cl         1.49492        0.46776        2.83663
Cl        -1.64362       -0.41438        2.83258
C         -1.35880       -1.13438       -4.65722
C          1.48983        0.75646       -4.68397
H         -0.65492        4.44060       -2.91645
H         -1.74704        3.11759       -1.14915
H          1.74792       -3.20038       -0.83521
H          0.74835       -4.66150       -2.54787
H          0.84628        3.33046       -4.51705
H         -0.69642       -3.68808       -4.28444
C         -4.01024       -3.23032       -1.77488
C         -2.95875       -3.41699       -0.88568
C         -2.23418       -2.29922       -0.49177
C         -2.54860       -1.06000       -0.98993
C         -3.58555       -0.89143       -1.87392
C         -4.34606       -1.98021       -2.28249
H         -4.58856       -4.08714       -2.06475
H         -1.42187       -2.38280        0.20942
H         -3.81238        0.09973       -2.23051
C         -4.18206        2.88850        2.34361
C         -4.75102        1.77793        1.73284
C         -3.96161        1.04070        0.85903
C         -2.66354        1.41124        0.60840
C         -2.11651        2.50775        1.22808
C         -2.86420        3.26679        2.11820
H         -4.78373        3.46031        3.02461
H         -4.34545        0.15445        0.38591
H         -1.08738        2.75677        1.03379
C          4.33317       -2.77046        2.41683
C          2.98869       -3.12200        2.36252
C          2.16549       -2.41650        1.49507
C          2.66759       -1.39103        0.73362
C          3.99408       -1.04893        0.81011
C          4.85794       -1.73496        1.65176
H          4.98500       -3.31013        3.07626
H          1.11801       -2.65680        1.42530
H          4.35838       -0.22758        0.21810
C          3.93212        3.21679       -1.60195
C          2.94077        3.36572       -0.63935
C          2.20381        2.24267       -0.28873
C          2.45260        1.03297       -0.88644
C          3.43618        0.89936       -1.83534
C          4.20231        1.99697       -2.21078
H          4.52985        4.06597       -1.87451
H          1.44928        2.30279        0.47708
H          3.61338       -0.07428       -2.25992
Pd        -0.06974       -0.01705        1.28519
C         -2.42860       -5.79198       -1.50892
C         -2.65624       -4.81816       -0.33759
C         -3.84866       -5.29447        0.51076
C         -1.39379       -4.81875        0.54585
H         -1.61494       -5.44533       -2.14476
H         -2.17168       -6.78647       -1.14453
H         -3.31959       -5.88602       -2.12826
H         -3.66087       -6.28367        0.92789
H         -4.03057       -4.60770        1.33728
H         -4.75929       -5.34923       -0.08486
H         -1.17320       -5.82390        0.90483
H         -0.52803       -4.46826       -0.01473
H         -1.52334       -4.17922        1.41868
C         -6.57571       -0.86370       -2.50629
C         -5.54666       -1.76171       -3.21617
C         -6.23151       -3.09160       -3.58646
C         -5.08064       -1.08069       -4.51584
H         -6.14798        0.10807       -2.26201
H         -7.44863       -0.69534       -3.13672
H         -6.91368       -1.32690       -1.57960
H         -6.62230       -3.59270       -2.70107
H         -7.06895       -2.91966       -4.26260
H         -5.53543       -3.76442       -4.08718
H         -4.59567       -0.12643       -4.31436
H         -4.37402       -1.71423       -5.04988
H         -5.92441       -0.89080       -5.17908
C         -6.63558        0.13135        1.27552
C         -6.19399        1.37612        2.06904
C         -7.14352        2.53694        1.72018
C         -6.29063        1.05575        3.57186
H         -7.66346       -0.13855        1.51741
H         -6.58648        0.31829        0.20373
H         -6.00608       -0.72765        1.50728
H         -8.17933        2.26910        1.92809
H         -6.90868        3.42987        2.29817
H         -7.06653        2.79208        0.66338
H         -7.29935        0.74276        3.84069
H         -5.60449        0.25161        3.83720
H         -6.03747        1.92422        4.17876
C         -3.09268        5.00293        3.96485
C         -2.22615        4.48521        2.80024
C         -2.06716        5.60855        1.76181
C         -0.84528        4.09863        3.36780
H         -2.59796        5.82768        4.47772
H         -4.05472        5.37105        3.60950
H         -3.27197        4.21542        4.69668
H         -1.46810        5.27612        0.91564
H         -3.03886        5.91781        1.37718
H         -1.58188        6.48106        2.19883
H         -0.39903        4.93172        3.91042
H         -0.93324        3.25623        4.05357
H         -0.15262        3.81443        2.57808
C          3.39862       -4.78270        4.24879
C          2.38854       -4.24870        3.21506
C          1.96901       -5.40481        2.29100
C          1.15691       -3.71558        3.97456
H          2.94363       -5.55306        4.87131
H          4.26549       -5.22708        3.76033
H          3.74245       -3.98479        4.90679
H          1.24331       -5.06991        1.55176
H          2.83063       -5.80159        1.75441
H          1.51957       -6.21835        2.86013
H          0.73941       -4.48164        4.62755
H          1.42670       -2.85713        4.58923
H          0.36940       -3.40073        3.29146
C          7.13167       -2.16237        2.71553
C          6.33221       -1.31122        1.71086
C          6.41652        0.16509        2.14375
C          6.96231       -1.47713        0.31542
H          7.11558       -3.21604        2.43755
H          8.17417       -1.84580        2.74673
H          6.72674       -2.06328        3.72250
H          5.94400        0.30808        3.11529
H          7.45365        0.49100        2.22025
H          5.91492        0.81772        1.43000
H          8.01364       -1.19006        0.32480
H          6.89745       -2.51345       -0.01553
H          6.45446       -0.85865       -0.42363
C          2.86493        4.51445        1.58576
C          2.66141        4.69754        0.06968
C          1.21059        5.12212       -0.21343
C          3.60180        5.81607       -0.41785
H          2.67139        5.44368        2.12125
H          2.19812        3.75301        1.98746
H          3.88763        4.20597        1.80151
H          0.50907        4.35659        0.11295
H          0.96542        6.04933        0.30414
H          1.05858        5.27998       -1.28062
H          3.48099        5.99204       -1.48661
H          3.38688        6.75259        0.09671
H          4.64431        5.56464       -0.22354
C          5.19152        2.90415       -4.33859
C          5.36986        1.88079       -3.20111
C          5.45349        0.47153       -3.81986
C          6.68635        2.16341       -2.45385
H          4.24700        2.74718       -4.85776
H          5.19837        3.92550       -3.96033
H          5.99535        2.81703       -5.06943
H          5.63282       -0.28371       -3.05494
H          4.53431        0.21742       -4.34642
H          6.27228        0.41222       -4.53679
H          7.54237        2.07302       -3.12231
H          6.69368        3.16900       -2.03465
H          6.82234        1.45928       -1.63323
H         -0.78393       -0.90194       -5.55433
H          2.39837        1.34677       -4.80376
H         -1.85559       -0.22130       -4.32601
H         -2.13198       -1.85155       -4.93432
H          1.01131        0.68004       -5.66123
H          1.78738       -0.24575       -4.37277
