111
-148.55023059
P         -2.62982        1.88524        0.21693
P          0.19776        0.47169        0.43252
C         -1.75681        1.83603        1.81025
C         -0.50604        1.26321        1.88923
C         -3.70948        3.39016        0.12835
C         -3.43774        4.21127       -1.11246
C         -2.34472        2.35528        2.94672
H         -3.33185        2.78332        2.88927
C         -1.67269        2.30716        4.15592
H         -2.13201        2.71367        5.04218
C         -0.41770        1.73453        4.22977
H          0.10345        1.69238        5.17203
C          0.16475        1.20418        3.09298
H          1.13396        0.73234        3.13741
Pd        -1.03491        1.27802       -1.35518
Cl        -2.52346        1.87342       -2.92102
Cl         0.56567        0.59624       -2.77404
C         -5.13304        2.79675        0.18644
C         -3.90183        0.55088        0.04475
H         -2.38554        4.49747       -1.17788
H         -3.68147        3.64228       -2.01023
H         -4.03957        5.12292       -1.13070
H         -5.81960        3.43414       -0.38970
H         -5.50682        2.81990        1.22066
H         -3.57276       -0.09971       -0.77745
C         -5.17296        1.33447       -0.34087
C         -4.03039       -0.24303        1.32650
H         -3.49176        3.98653        1.02433
H         -6.05971        0.80795        0.04133
H         -5.28379        1.34726       -1.43524
H         -4.77627       -1.03623        1.23519
H         -3.07974       -0.70397        1.60220
H         -4.33291        0.40425        2.15176
C         -1.44581       -3.77320        0.30845
C         -0.99285       -3.15771       -0.88602
C         -0.47568       -1.87768       -0.80402
C         -0.34105       -1.23937        0.40055
C         -0.67029       -1.87525        1.56893
C         -1.18631       -3.16064        1.56167
O         -2.20192       -4.97376        0.24714
C         -1.11837       -3.81885       -2.26673
H         -0.19683       -1.34055       -1.69322
H         -0.54666       -1.33872        2.49317
C         -1.49990       -3.84747        2.90007
C          4.72202        0.89020        0.08780
C          3.96652        1.92140        0.70178
C          2.59541        1.75535        0.81162
C          1.97327        0.64756        0.29641
C          2.68689       -0.30106       -0.38788
C          4.05744       -0.18733       -0.55119
O          6.14118        0.92169        0.13946
C          4.61909        3.19120        1.27059
H          1.98984        2.49167        1.31092
H          2.15197       -1.13675       -0.80404
C          4.79495       -1.22525       -1.41181
C          0.02898       -3.36118       -3.19594
C         -1.02509       -5.35177       -2.16360
C         -2.45656       -3.40812       -2.90026
C         -1.34695       -5.37537        2.78902
C         -0.51750       -3.37558        3.99602
C         -2.92883       -3.48929        3.33638
C         -3.60519       -4.76476        0.14521
H         -0.04823       -2.30439       -3.44649
H          0.99684       -3.53345       -2.72688
H          0.00973       -3.91364       -4.13500
H         -0.09756       -5.64733       -1.67438
H         -1.85060       -5.76250       -1.58803
H         -1.05019       -5.81305       -3.15055
H         -2.57488       -3.85399       -3.88740
H         -3.29659       -3.72293       -2.28540
H         -2.51415       -2.32526       -3.00982
H         -1.50357       -5.85623        3.75429
H         -2.06672       -5.79663        2.09169
H         -0.34930       -5.63655        2.43768
H         -0.65427       -3.95064        4.91157
H          0.51490       -3.50315        3.67151
H         -0.66988       -2.32798        4.25132
H         -3.03351       -2.41287        3.46922
H         -3.65881       -3.80434        2.59456
H         -3.18013       -3.97024        4.28135
H         -3.83285       -3.69800        0.15418
H         -3.97561       -5.20624       -0.77980
H         -4.10882       -5.25102        0.98057
C          6.69703        0.23346        1.25275
C          3.63217        4.37981        1.23140
C          5.02681        2.94209        2.73056
C          5.84824        3.60121        0.43892
C          5.22571       -2.40708       -0.53042
C          3.86945       -1.75518       -2.53110
C          6.02114       -0.60189       -2.10316
H          4.13137        5.30632        1.51428
H          3.22436        4.51207        0.22958
H          2.80410        4.23911        1.92457
H          5.48493        3.83019        3.16514
H          4.15775        2.68045        3.33387
H          5.74008        2.12499        2.80642
H          5.57649        3.73230       -0.60794
H          6.27121        4.53833        0.79997
H          6.63006        2.84730        0.48861
H          5.89602       -2.08426        0.26257
H          4.35944       -2.87419       -0.06240
H          5.74121       -3.16541       -1.11919
H          3.05993       -2.36140       -2.12854
H          3.43281       -0.93161       -3.09557
H          4.42347       -2.38355       -3.22801
H          6.76173       -0.27371       -1.37819
H          5.72752        0.26405       -2.69556
H          6.50428       -1.31900       -2.76631
H          7.30001        0.92280        1.84358
H          5.90555       -0.18409        1.87634
H          7.34505       -0.56909        0.90104
