111
-148.55463764
P         -2.77704        1.84664       -0.32428
P          0.10569        0.62344        0.19688
C         -1.89831        2.22839        1.21588
C         -0.62256        1.74333        1.40976
C         -3.76995        3.28784       -0.92572
C         -3.08329        4.00490       -2.06751
C         -2.49751        2.99606        2.19400
H         -3.50204        3.35759        2.04747
C         -1.81164        3.28196        3.36205
H         -2.27911        3.88122        4.12623
C         -0.53121        2.79821        3.55132
H          0.00090        3.01775        4.46228
C          0.06345        2.02130        2.57351
H          1.05407        1.61749        2.71316
Pd        -1.18540        0.92346       -1.71544
Cl        -2.65976        1.04277       -3.39427
Cl         0.57061       -0.01450       -2.76688
C         -5.11922        2.63954       -1.28599
C         -4.11097        0.57463       -0.15002
H         -3.67320        4.85537       -2.41706
H         -2.09886        4.37354       -1.76962
H         -2.93855        3.33539       -2.91615
H         -5.09967        2.35221       -2.34641
H         -5.93510        3.37249       -1.19263
H         -3.94317       -0.15166       -0.95669
C         -5.39693        1.38117       -0.41427
C         -4.06093       -0.10339        1.20198
H         -3.89087        3.96179       -0.06821
H         -5.82342        1.69153        0.54952
H         -6.16062        0.74114       -0.88163
H         -3.11480       -0.62818        1.34596
H         -4.15553        0.62837        2.00635
H         -4.86919       -0.82955        1.31537
C         -1.20911       -3.61135        1.24437
C         -0.71862       -3.32314       -0.05685
C         -0.34229       -2.02214       -0.33813
C         -0.37006       -1.05030        0.62561
C         -0.71192       -1.35401        1.91702
C         -1.09690       -2.63602        2.27110
O         -1.88628       -4.83252        1.49394
C         -0.57165       -4.36796       -1.17456
H         -0.02854       -1.74354       -1.32910
H         -0.68776       -0.56957        2.65369
C         -1.36407       -2.91912        3.75848
C          4.64971        0.89088        0.05740
C          3.87398        1.76012       -0.75595
C          2.49306        1.68766       -0.66474
C          1.88784        0.74341        0.12176
C          2.63140       -0.17889        0.81128
C          4.01514       -0.16171        0.76849
O          6.04026        1.11963        0.22019
C          4.47881        2.75289       -1.76320
H          1.87010        2.36767       -1.22092
H          2.11367       -0.92657        1.38833
C          4.76808       -1.30515        1.46915
C         -0.68578       -5.80892       -0.64839
C         -1.64907       -4.12318       -2.24425
C          0.82485       -4.23077       -1.82107
C         -0.20600       -2.34263        4.60304
C         -2.68018       -2.24413        4.17927
C         -1.43790       -4.42504        4.06415
C         -3.27962       -4.74359        1.24663
H         -0.48556       -6.53266       -1.43810
H          0.02521       -5.98049        0.15903
H         -1.68262       -6.00977       -0.26300
H         -1.56269       -3.12063       -2.66228
H         -1.55509       -4.83680       -3.06226
H         -2.64855       -4.22257       -1.82495
H          1.60733       -4.32090       -1.06811
H          0.98527       -5.00781       -2.56790
H          0.94770       -3.27122       -2.32044
H         -0.33084       -2.59342        5.65612
H          0.74983       -2.74783        4.27171
H         -0.15398       -1.25744        4.53215
H         -2.63541       -1.16743        4.01808
H         -3.52105       -2.63127        3.60674
H         -2.88546       -2.41619        5.23551
H         -0.54151       -4.93325        3.71046
H         -1.53111       -4.60464        5.13495
H         -2.29526       -4.88427        3.57777
H         -3.45778       -4.47027        0.20772
H         -3.74352       -5.70885        1.45047
H         -3.72583       -3.98640        1.88952
C          6.32933        1.99593        1.29638
C          3.73373        2.63040       -3.11130
C          4.32319        4.18538       -1.22767
C          5.96458        2.46851       -2.04442
C          4.68614       -1.11321        2.99237
C          4.11467       -2.65436        1.09274
C          6.24301       -1.38352        1.03894
H          4.19609        3.26102       -3.87017
H          3.75509        1.60157       -3.46950
H          2.69185        2.93456       -3.02813
H          4.72145        4.91126       -1.93615
H          3.27439        4.42503       -1.05533
H          4.85223        4.31188       -0.28493
H          6.57170        2.63195       -1.15709
H          6.10481        1.43504       -2.35933
H          6.34761        3.11908       -2.83028
H          5.19301       -1.92412        3.51482
H          5.15047       -0.17664        3.29564
H          3.64945       -1.09444        3.32752
H          4.67797       -3.48868        1.50987
H          3.09589       -2.73174        1.46904
H          4.08363       -2.77717        0.01047
H          6.32362       -1.45112       -0.04541
H          6.73316       -2.25513        1.47205
H          6.79419       -0.50268        1.35978
H          5.85451        2.96151        1.12949
H          5.95564        1.57721        2.22953
H          7.40850        2.13247        1.36896
