58
-89.86716376
P          1.51956        0.26287        0.88679
C          1.57038        1.98030        0.36095
C          1.72575        2.23713       -0.98196
C          1.75318        3.54206       -1.43730
C          1.63089        4.58331       -0.53875
C          1.48816        4.32220        0.80998
C          1.46010        3.01513        1.26181
H          1.35220        2.80131        2.31246
H          1.82648        1.40749       -1.66393
C          3.15400       -0.47460        0.82860
C          4.25927        0.34425        0.87781
C          5.52712       -0.20790        0.83714
C          5.67740       -1.57770        0.74758
C          4.56531       -2.39505        0.69877
C          3.29883       -1.84012        0.74095
H          2.42310       -2.46680        0.68794
H          4.12457        1.41223        0.94336
C          0.84150        0.05986        2.58832
C          0.12376       -1.27634        2.75348
C         -1.35775       -1.23903        2.40525
P         -1.74301       -0.62605        0.70780
C         -3.23149       -1.42726        0.10825
C         -3.24183       -2.79372       -0.05173
C         -4.38218       -3.42169       -0.52076
C         -5.50332       -2.67497       -0.82521
C         -5.48760       -1.30364       -0.66307
C         -4.34589       -0.67868       -0.19483
H         -4.31732        0.39131       -0.06717
H         -2.35408       -3.36179        0.17852
C         -1.89377        1.16847        0.60878
C         -1.97140        1.96510        1.72821
C         -2.03635        3.33947        1.59070
C         -2.02739        3.90934        0.33317
C         -1.96099        3.10785       -0.78835
C         -1.89677        1.73409       -0.64656
H         -1.83903        1.09190       -1.51175
H         -1.99156        1.51766        2.70750
Pd         0.12209       -0.72358       -0.67145
Cl         1.92243       -0.98424       -1.99393
Cl        -1.26088       -1.57859       -2.22291
H         -1.79868       -2.23598        2.48221
H         -1.90733       -0.60942        3.10644
H          0.62838       -2.02887        2.13226
H          0.23939       -1.63718        3.78754
H          1.69803        0.14913        3.26160
H          0.17458        0.89189        2.81324
H          1.86846        3.74377       -2.48946
H          1.39473        5.13571        1.51052
H          6.39451        0.43058        0.87260
H          4.68254       -3.46356        0.62254
H         -4.39244       -4.49110       -0.65271
H         -6.36130       -0.72035       -0.90325
H         -2.09083        3.96580        2.46597
H         -1.95178        3.54979       -1.77105
H          1.64882        5.60199       -0.89043
H          6.66433       -2.00950        0.71254
H         -6.39129       -3.16305       -1.19273
H         -2.07105        4.98102        0.22705
