72
-98.09376103
Fe        -0.04058        2.79967       -0.05493
P          1.83307       -0.08124       -0.04351
P         -1.88449       -0.08286       -0.08715
C          1.41910        1.57466        0.63449
C          0.46482        1.85150        1.69297
C          0.41343        3.28960        1.89111
C          1.37069        3.90904        0.99370
C          1.97051        2.84964        0.20052
C         -1.42200        1.55085       -0.78143
C         -2.02345        2.83113       -0.44550
C         -1.35887        3.86061       -1.22784
C         -0.36179        3.21882       -2.06515
C         -0.39553        1.79498       -1.78160
C          3.02577       -0.87388        1.12592
C          4.33121       -0.14184        0.77679
C          3.02992        0.14309       -1.44808
C          4.40289        0.23193       -0.73550
C         -3.35331       -0.72521       -1.01283
C         -4.52142       -0.20295       -0.15903
C         -2.65705        0.10096        1.58890
C         -4.15520       -0.18414        1.34988
H         -0.09390        1.10799        2.25998
H         -0.20054        3.81023        2.62967
H          1.58610        4.97680        0.91462
H          2.73619        2.98293       -0.56658
H         -2.84276        2.98330        0.26073
H          0.24081        1.03614       -2.23718
Cl         1.54426       -3.09299       -0.39438
Cl        -1.67716       -3.02512        0.12666
Pd        -0.02459       -1.50235       -0.10706
H          3.10185       -1.93350        0.85728
C          2.56836       -0.72772        2.57138
H          2.77073        1.08894       -1.93858
C          2.97992       -0.99685       -2.46262
H          5.20336       -0.74363        1.07577
H          4.38529        0.77200        1.38629
H          4.83519        1.23587       -0.85991
H          5.10492       -0.44360       -1.24400
H         -1.59111        4.92788       -1.21118
H          0.30005        3.71697       -2.77689
H          2.49394        0.34041        2.81439
H          3.84408       -0.91141       -3.13629
H         -3.31106       -1.81941       -0.97032
C         -3.38400       -0.26108       -2.46399
H         -2.49765        1.14380        1.88747
C         -2.01881       -0.84743        2.59980
H         -5.42637       -0.80373       -0.33929
H         -4.77170        0.81466       -0.49096
H         -4.77631        0.54326        1.89345
H         -4.40134       -1.16061        1.78848
H         -4.36244       -0.50650       -2.89998
H         -0.92572       -0.77294        2.53977
C          3.48658       -1.43094        3.55922
H          3.55506       -2.49820        3.34042
H          4.49978       -1.02755        3.51538
H          3.13670       -1.32788        4.58890
C          1.70168       -1.04539       -3.28201
H          1.54555       -0.11472       -3.83058
H          1.71519       -1.85769       -4.01230
H          0.83204       -1.20213       -2.64556
C         -2.27199       -0.87036       -3.30112
H         -1.29392       -0.61119       -2.89726
H         -2.33530       -1.96009       -3.31018
H         -2.30095       -0.52779       -4.33791
C         -2.48150       -0.59420        4.02645
H         -2.01687       -1.28261        4.73601
H         -2.23631        0.42087        4.34476
H         -3.56299       -0.70768        4.11947
H          1.54493       -1.11684        2.66404
H          3.12492       -1.94481       -1.92864
H         -3.32339        0.83492       -2.48717
H         -2.24312       -1.88050        2.30274
