72
-98.09830891
Fe        -0.01293        2.77247       -0.07161
P          1.90765       -0.01908        0.01624
P         -1.87781       -0.07986        0.14593
C          1.47951        1.64729        0.64957
C          0.51309        1.92803        1.69525
C          0.40046        3.36963        1.83340
C          1.31762        3.98219        0.88903
C          2.00025        2.91907        0.17043
C         -1.40747        1.48125       -0.69880
C         -2.02619        2.78214       -0.49764
C         -1.35542        3.73762       -1.36148
C         -0.33090        3.02441       -2.10149
C         -0.38528        1.62464       -1.72112
C          3.18530       -0.75457        1.13637
C          4.44818        0.00852        0.70179
C          3.02679        0.20152       -1.45660
C          4.42012        0.39238       -0.80922
C         -3.38054       -0.73618       -0.71661
C         -4.51816       -0.00087        0.01124
C         -2.67438        0.34998        1.77683
C         -4.19059        0.22224        1.51122
H         -0.02070        1.18028        2.27959
H         -0.24386        3.89806        2.54013
H          1.48475        5.05416        0.75949
H          2.75488        3.05061       -0.60766
H         -2.85594        2.99627        0.17904
H          0.24815        0.82608       -2.10564
Cl         1.59786       -3.03514       -0.40683
Cl        -1.54857       -3.03434       -0.18157
Pd         0.04732       -1.43644       -0.03301
H          3.26968       -1.81569        0.87441
C          2.85194       -0.60142        2.61695
H          2.69792        1.11241       -1.97114
C          3.01298       -0.97438       -2.43289
H          5.35042       -0.57428        0.94399
H          4.52194        0.92059        1.31222
H          4.76697        1.42763       -0.94480
H          5.14900       -0.22250       -1.35579
H         -1.58585        4.80171       -1.44419
H          0.33889        3.45745       -2.84783
H          3.74741       -0.83645        3.20905
H          3.86017       -0.86825       -3.12482
H         -3.43316       -1.81070       -0.50913
C         -3.35886       -0.48941       -2.22107
H         -2.41428        1.40511        1.93338
C         -2.19514       -0.48375        2.96821
H         -5.46607       -0.54801       -0.10900
H         -4.67617        0.96972       -0.48011
H         -4.71942        1.10834        1.89296
H         -4.58993       -0.61454        2.09751
H         -4.34571       -0.73432       -2.63796
H         -2.73372       -0.14940        3.86576
C          1.69257       -1.47460        3.06771
H          0.77840       -1.22436        2.53105
H          1.89560       -2.53018        2.87777
H          1.48482       -1.36465        4.13448
C          1.72883       -1.11637       -3.23178
H          1.50622       -0.20703       -3.79306
H          1.78368       -1.93843       -3.94914
H          0.88022       -1.31961       -2.58105
C         -2.27977       -1.27759       -2.94297
H         -1.29034       -1.00885       -2.57539
H         -2.39981       -2.35059       -2.78278
H         -2.28896       -1.09942       -4.02061
C         -2.36501       -1.98575        2.80574
H         -1.78924       -2.35846        1.96029
H         -2.02699       -2.53237        3.68926
H         -3.40454       -2.26531        2.63164
H          2.63876        0.45518        2.82462
H          3.21618       -1.89540       -1.87193
H         -3.22862        0.58572       -2.40140
H         -1.14212       -0.26047        3.17458
