111
-148.55635013
P         -2.16229        2.08836        1.48299
P          0.17691        0.13348        0.61172
C         -1.05626        1.39569        2.73599
C         -0.04648        0.53981        2.35353
C         -2.22087        3.93380        1.58191
C         -1.34902        4.56791        0.51933
C         -1.21359        1.72821        4.06599
H         -1.99370        2.41405        4.35423
C         -0.36523        1.18540        5.01558
H         -0.48823        1.44156        6.05523
C          0.63874        0.31697        4.63193
H          1.29888       -0.10627        5.37103
C          0.80011       -0.00498        3.29599
H          1.58314       -0.67606        2.98071
Pd        -1.42993        1.32795       -0.56658
Cl        -3.22471        2.31979       -1.47060
Cl        -0.53289        0.51464       -2.45420
C         -3.72354        4.23475        1.44109
C         -3.95645        1.69606        1.74122
H         -1.67963        4.27444       -0.47874
H         -1.38588        5.65855        0.57100
H         -0.30648        4.25803        0.62480
H         -3.95504        4.37948        0.37670
H         -3.97155        5.18904        1.93040
H         -4.30708        1.28970        0.78322
C         -4.59152        3.07563        2.00593
C         -4.17007        0.69778        2.86039
H         -1.86824        4.20081        2.58675
H         -4.71218        3.20700        3.08985
H         -5.61027        3.11246        1.59159
H         -5.22383        0.42666        2.95799
H         -3.59794       -0.21651        2.69663
H         -3.84913        1.11138        3.81734
C         -1.30958       -4.06275       -0.35898
C         -2.16337       -3.12437        0.28060
C         -1.64444       -1.88012        0.60184
C         -0.37240       -1.52755        0.23140
C          0.40128       -2.37815       -0.51433
C         -0.04740       -3.64229       -0.85522
O         -1.68448       -5.42863       -0.43774
C         -3.64733       -3.38783        0.58808
H         -2.23974       -1.15720        1.13289
H          1.36686       -2.03929       -0.84439
C          0.84479       -4.50512       -1.76324
C          4.34139        1.03552       -1.00547
C          4.14449       -0.10064       -0.17980
C          2.86965       -0.35126        0.30035
C          1.83182        0.50404        0.03357
C          2.04303        1.66085       -0.67014
C          3.29378        1.97616       -1.17378
O          5.57476        1.21205       -1.68765
C          5.28023       -1.07841        0.16090
H          2.66675       -1.23374        0.88168
H          1.20492        2.31383       -0.84128
C          3.47678        3.30249       -1.92786
C         -4.48938       -2.19373        0.08632
C         -4.18149       -4.64204       -0.12545
C         -3.83686       -3.54357        2.10570
C          1.40322       -3.63885       -2.91509
C          2.01749       -5.06610       -0.94267
C          0.06552       -5.66401       -2.40887
C         -1.30150       -6.16998        0.70814
H         -5.55333       -2.37915        0.23090
H         -4.24540       -1.27488        0.61483
H         -4.31844       -2.02311       -0.97621
H         -5.25503       -4.75284        0.02549
H         -3.99238       -4.58406       -1.19680
H         -3.70191       -5.54323        0.24914
H         -4.88749       -3.69202        2.35381
H         -3.27873       -4.39780        2.48476
H         -3.48832       -2.65850        2.63621
H          2.08645       -2.87239       -2.55326
H          1.95427       -4.25041       -3.62906
H          0.59372       -3.14358       -3.45055
H          2.58745       -4.26151       -0.47949
H          1.66462       -5.72134       -0.14881
H          2.69584       -5.63957       -1.57391
H          0.68804       -6.21002       -3.11728
H         -0.27880       -6.37256       -1.65899
H         -0.80827       -5.28961       -2.94103
H         -0.21796       -6.16109        0.81321
H         -1.74464       -5.73265        1.60161
H         -1.64437       -7.19933        0.60146
C          5.60943        0.63028       -2.98499
C          5.36539       -2.15949       -0.92746
C          6.62586       -0.34057        0.28304
C          5.02012       -1.76980        1.51856
C          2.52302        4.38378       -1.36922
C          4.90901        3.84279       -1.76565
C          3.15278        3.08740       -3.41421
H          5.58268       -1.72513       -1.89991
H          6.14852       -2.88220       -0.69978
H          4.42222       -2.69831       -1.00970
H          6.56133        0.45478        1.02481
H          7.42070       -1.02232        0.58458
H          6.91934        0.10850       -0.66259
H          4.16956       -2.44819        1.46885
H          5.88304       -2.36204        1.82230
H          4.82879       -1.03336        2.29866
H          2.62827        4.47287       -0.28828
H          2.74225        5.35686       -1.80813
H          1.48176        4.15990       -1.59623
H          5.15753        3.95939       -0.71132
H          5.64024        3.17080       -2.20737
H          5.01899        4.81298       -2.24949
H          3.81130        2.34524       -3.85867
H          3.26151        4.01459       -3.97618
H          2.12864        2.73558       -3.53710
H          4.67100        0.11614       -3.19671
H          5.77513        1.40680       -3.73142
H          6.43519       -0.07857       -3.04464
