111
-148.55392217
P         -2.58704        2.17471        0.56393
P          0.09038        0.49491        0.41653
C         -1.49837        2.08499        2.01275
C         -0.30927        1.39367        1.92572
C         -3.39385        3.83459        0.41899
C         -2.75845        4.67373       -0.66803
C         -1.85375        2.69352        3.19971
H         -2.79403        3.21499        3.27130
C         -1.00920        2.61516        4.29376
H         -1.28609        3.09014        5.22079
C          0.18576        1.92752        4.20053
H          0.84150        1.86459        5.05327
C          0.53508        1.31020        3.01281
H          1.45507        0.75318        2.92679
Pd        -1.36013        1.30370       -1.18964
Cl        -2.98569        2.03338       -2.55191
Cl        -0.05233        0.42538       -2.79069
C         -4.87139        3.47328        0.17944
C         -4.08170        1.09068        0.68879
H         -3.23552        5.65340       -0.74634
H         -1.69359        4.82830       -0.47840
H         -2.84982        4.18619       -1.63920
H         -5.05145        3.42758       -0.90352
H         -5.52848        4.27219        0.55555
H         -4.15129        0.55803       -0.26919
C         -5.23452        2.10353        0.82202
C         -3.95860        0.11442        1.83860
H         -3.27687        4.32217        1.39508
H         -5.45750        2.24715        1.88821
H         -6.15609        1.69477        0.38049
H         -4.85071       -0.50931        1.93118
H         -3.09782       -0.54451        1.70589
H         -3.82327        0.64366        2.78367
C         -1.05579       -3.89744        0.77393
C         -1.02745       -3.08923        1.93973
C         -0.66963       -1.75809        1.80713
C         -0.42202       -1.21418        0.57444
C         -0.55400       -1.96490       -0.56291
C         -0.90945       -3.30040       -0.50411
O         -1.18834       -5.30673        0.88972
C         -1.33746       -3.64505        3.33825
H         -0.56519       -1.12763        2.67216
H         -0.36195       -1.48407       -1.50619
C         -1.09796       -4.07675       -1.81622
C          4.48327        0.68836       -0.76626
C          3.65122        1.82213       -0.96886
C          2.33012        1.75031       -0.55614
C          1.81486        0.58942       -0.04254
C          2.58100       -0.54430        0.03849
C          3.90832       -0.54315       -0.35497
O          5.89067        0.80394       -0.90155
C          4.12227        3.11456       -1.65703
H          1.68153        2.60602       -0.64099
H          2.12470       -1.44636        0.40946
C          4.65815       -1.88617       -0.35400
C         -2.38413       -4.77171        3.26697
C         -0.04055       -4.16637        3.97543
C         -1.92535       -2.54232        4.24822
C         -1.62575       -3.14091       -2.92841
C          0.25358       -4.65518       -2.26195
C         -2.13240       -5.20473       -1.65202
C          0.05154       -5.99687        0.98535
H         -2.65174       -5.12172        4.26364
H         -3.29121       -4.42196        2.77511
H         -2.00992       -5.62597        2.70822
H          0.39759       -4.96422        3.38059
H          0.69745       -3.36839        4.05476
H         -0.22607       -4.55575        4.97614
H         -2.25320       -2.96084        5.19951
H         -1.19118       -1.77083        4.47540
H         -2.78672       -2.06939        3.77778
H         -0.88066       -2.40434       -3.22491
H         -1.88579       -3.70885       -3.82124
H         -2.51795       -2.61006       -2.59739
H          0.97895       -3.85780       -2.42143
H          0.66167       -5.32838       -1.51168
H          0.15252       -5.21027       -3.19415
H         -2.31246       -5.71240       -2.59928
H         -1.79578       -5.95168       -0.93765
H         -3.08127       -4.80555       -1.29522
H          0.07660       -6.57557        1.90860
H          0.15281       -6.68717        0.14813
H          0.88253       -5.29029        0.97626
C          6.52865        1.18481        0.30566
C          4.27420        4.22766       -0.60776
C          5.45454        2.92699       -2.40360
C          3.07426        3.54592       -2.70739
C          5.96339       -1.82539       -1.16595
C          4.97099       -2.29702        1.09396
C          3.76959       -2.96995       -1.00615
H          4.58108        5.16335       -1.07440
H          3.33284        4.40430       -0.08834
H          5.02126        3.96447        0.13873
H          5.72120        3.82304       -2.96352
H          6.26731        2.71721       -1.71219
H          5.38843        2.09487       -3.10367
H          3.42301        4.40965       -3.27285
H          2.88187        2.73741       -3.41211
H          2.12747        3.82171       -2.24634
H          6.43110       -2.80739       -1.23269
H          5.76986       -1.47073       -2.17771
H          6.68125       -1.14930       -0.70742
H          5.47945       -3.26036        1.12402
H          5.61177       -1.56421        1.58075
H          4.05669       -2.38166        1.68069
H          4.30960       -3.91190       -1.09858
H          3.45840       -2.66142       -2.00378
H          2.87364       -3.16763       -0.41989
H          6.33637        0.44351        1.07967
H          7.60306        1.25909        0.13646
H          6.14919        2.14894        0.64048
