111
-148.55338184
P         -2.64019        1.92026        0.55472
P          0.18109        0.49070        0.48362
C         -1.72687        1.64122        2.10016
C         -0.47564        1.06541        2.05817
C         -3.69919        3.43457        0.68937
C         -3.42631        4.40970       -0.43419
C         -2.27925        1.99053        3.31639
H         -3.26559        2.42306        3.34989
C         -1.57123        1.76848        4.48508
H         -2.00282        2.04132        5.43426
C         -0.31508        1.19486        4.43762
H          0.23415        1.01866        5.34783
C          0.23276        0.83688        3.21907
H          1.20357        0.36972        3.16365
Pd        -1.08217        1.58296       -1.12428
Cl        -2.56892        2.33262       -2.62042
Cl         0.56092        1.14473       -2.59402
C         -5.13023        2.85645        0.68253
C         -3.93095        0.63621        0.22304
H         -4.01912        5.32129       -0.32791
H         -2.37166        4.69257       -0.46849
H         -3.68015        3.96566       -1.39746
H         -5.81345        3.57481        0.20636
H         -5.49348        2.74317        1.71456
H         -3.61925        0.09667       -0.68212
C         -5.19522        1.48011       -0.03849
C         -4.05685       -0.31792        1.39051
H         -3.46368        3.90040        1.65553
H         -6.08531        0.91731        0.27875
H         -5.31629        1.64298       -1.11967
H         -3.10905       -0.82072        1.59277
H         -4.34380        0.21835        2.29696
H         -4.81294       -1.08435        1.20387
C         -1.40154       -3.71207       -0.26617
C         -0.93107       -2.92736       -1.34972
C         -0.45790       -1.65647       -1.07769
C         -0.38588       -1.18610        0.20597
C         -0.72979       -1.98253        1.26620
C         -1.20274       -3.26866        1.06693
O         -2.10876       -4.91776       -0.51693
C         -0.97111       -3.40899       -2.80748
H         -0.15036       -0.99848       -1.87151
H         -0.63706       -1.57813        2.25880
C         -1.51721       -4.14678        2.28811
C          4.71657        0.60242        0.12780
C          4.06976       -0.56052        0.62417
C          2.68729       -0.55432        0.70581
C          1.96394        0.56765        0.39537
C          2.59108        1.73318        0.04232
C          3.97122        1.79660       -0.06396
O          6.08213        0.54688       -0.25232
C          4.80902       -1.82922        1.08165
H          2.15388       -1.44270        0.99999
H          1.98463        2.59689       -0.17274
C          4.60514        3.16049       -0.38561
C         -2.30521       -2.98668       -3.44157
C          0.18332       -2.77849       -3.61994
C         -0.79972       -4.93618       -2.89407
C         -0.57662       -3.79745        3.46403
C         -2.96815       -3.90608        2.73188
C         -1.30129       -5.63742        1.96947
C         -3.51529       -4.74508       -0.63675
H         -2.36028       -3.30285       -4.48286
H         -3.14870       -3.42338       -2.91201
H         -2.41988       -1.90326       -3.41090
H          0.04723       -1.70592       -3.74978
H          1.14052       -2.94516       -3.12658
H          0.23928       -3.21590       -4.61641
H         -1.62262       -5.45591       -2.40979
H         -0.76502       -5.26851       -3.93128
H          0.12415       -5.24657       -2.40710
H         -0.77628       -2.80253        3.85922
H         -0.70824       -4.50017        4.28650
H          0.46647       -3.83952        3.15130
H         -3.22151       -4.52728        3.59056
H         -3.11754       -2.86476        3.01541
H         -3.66850       -4.13578        1.93230
H         -1.45803       -6.25417        2.85408
H         -1.98963       -5.98276        1.20214
H         -0.28713       -5.81005        1.61075
H         -4.02325       -5.34736        0.11631
H         -3.78269       -3.69582       -0.50440
H         -3.84268       -5.08160       -1.62031
C          6.25943        0.15529       -1.60362
C          4.60393       -2.94295        0.04118
C          6.31425       -1.58761        1.28882
C          4.23587       -2.29532        2.43869
C          3.97476        4.24521        0.51558
C          6.12029        3.18152       -0.11860
C          4.33712        3.51169       -1.85862
H          5.09857       -3.86262        0.35257
H          3.54466       -3.16053       -0.09300
H          5.00842       -2.65613       -0.92752
H          6.47929       -0.75517        1.97195
H          6.80042       -2.47021        1.70383
H          6.80887       -1.35107        0.34980
H          3.19398       -2.60027        2.35577
H          4.79348       -3.14902        2.82307
H          4.29543       -1.49531        3.17611
H          2.91484        4.37981        0.30689
H          4.08076        3.98021        1.56718
H          4.46013        5.20857        0.36117
H          6.64910        2.51224       -0.79296
H          6.53021        4.18142       -0.25910
H          6.33512        2.86579        0.90170
H          4.75055        4.48856       -2.10788
H          3.26752        3.53678       -2.06462
H          4.78480        2.77785       -2.52585
H          5.84620       -0.83934       -1.76209
H          5.75085        0.85458       -2.26514
H          7.32393        0.14511       -1.83866
