59
-75.79866286
Cl         1.52687        0.94348        2.30288
P          1.60215        0.00168       -0.78674
P         -1.56702       -0.11816       -0.84315
C          0.69073        0.60261       -2.27584
H          0.51421        1.67235       -2.14750
H          1.33865        0.48509       -3.14958
C         -0.60522       -0.14871       -2.42757
H         -0.41179       -1.19400       -2.67874
H         -1.22997        0.26080       -3.22730
C          2.19328       -1.72736       -1.09786
H          1.69342       -2.03764       -2.02458
C          3.24404        0.82839       -0.60168
H          3.50254        0.76393        0.46234
C         -2.42803       -1.71220       -0.44211
H         -2.16638       -1.94049        0.59849
C         -3.02734        1.02133       -0.91488
H         -3.20803        1.21567       -1.97905
C          3.71342       -1.57823       -1.33797
H          4.25911       -2.07045       -0.52398
H          4.01071       -2.12572       -2.24483
C          4.15832       -0.09075       -1.43090
H          4.12659        0.23983       -2.47888
H          5.20688        0.02831       -1.11677
C         -3.91957       -1.34947       -0.55205
H         -4.27947       -1.62872       -1.55178
H         -4.51292       -1.95088        0.15332
C         -4.16205        0.16625       -0.32281
H         -4.22561        0.36516        0.75606
H         -5.13303        0.47727       -0.73772
C          1.81304       -2.66092        0.05118
H          2.08306       -3.69167       -0.21812
H          0.71944       -2.66489        0.15399
C          3.23301        2.28495       -1.04859
H          4.26723        2.65313       -1.09932
H          2.85819        2.33895       -2.07877
C         -2.00172       -2.85886       -1.35196
H         -2.27233       -2.60919       -2.38631
H         -0.90701       -2.93801       -1.35025
C         -2.80708        2.33485       -0.17247
H         -3.75895        2.88208       -0.12636
H         -2.55285        2.11345        0.87177
C          2.43892       -2.30116        1.39252
H          2.05846       -2.92990        2.20087
H          2.23158       -1.26614        1.66303
H          3.52345       -2.41561        1.38351
C          2.40791        3.17649       -0.13377
H          2.80639        3.17396        0.88250
H          1.37685        2.82872       -0.06752
H          2.38562        4.21302       -0.47758
C         -2.61726       -4.19186       -0.95358
H         -2.34056       -4.46339        0.06696
H         -2.29525       -5.00449       -1.60885
H         -3.70737       -4.15332       -0.99143
C         -1.73516        3.20989       -0.79835
H         -0.76770        2.70999       -0.78606
H         -1.96818        3.43917       -1.83986
H         -1.61775        4.15818       -0.26883
Cl        -1.72672        0.31461        2.29562
Pd        -0.02538        0.26441        0.83482
