100
-131.98004079
C         -1.60451        3.83795       -1.49782
C         -2.34730        2.57199       -1.49601
C         -0.21819        3.53807       -1.56214
C         -0.04643        2.05836       -1.59621
C          1.11777        1.45354       -2.30831
C         -1.43100        1.47642       -1.62069
C         -1.85355        0.07170       -2.00674
C         -0.93007       -0.63483       -2.97758
Cl         0.96328       -0.47056        2.81980
Cl        -1.88938       -1.79807        2.26332
C          3.21438        0.40589       -3.84298
C          2.47426        1.46636       -4.32685
C          2.92330       -0.12257       -2.59370
C          1.45230        1.98583       -3.57299
C          1.88647        0.36954       -1.83618
H         -3.43230        2.48843       -1.57293
H          0.58881        4.26801       -1.65917
H          0.00515       -0.90739       -2.48906
H         -1.37298       -1.55548       -3.36432
H         -0.69000        0.00192       -3.83241
H          4.02611        0.00160       -4.42539
H          2.70119        1.88625       -5.29346
H          3.54337       -0.91423       -2.20753
H          0.86988        2.80759       -3.95271
H         -2.04497        4.83821       -1.50549
P          1.75208       -0.27968       -0.15471
H         -2.85117        0.14903       -2.45989
P         -2.12839       -0.96238       -0.50448
H         -3.44253       -2.99164       -0.40701
C         -1.63352       -3.67867       -1.32852
C         -2.70686       -2.61239       -1.11359
C         -1.21491       -4.31531       -0.00034
H         -3.35862        0.91000        0.31780
C         -4.94568       -0.47343       -0.20972
C         -3.55138       -0.16062        0.37083
H         -4.80171       -0.83362       -1.24407
C         -5.65580       -1.56793        0.59492
H          3.61351       -1.78638       -0.39751
H          2.52546        0.81211        1.86463
C          3.50334        3.30748        1.18823
C          2.68058        2.32599        0.33420
C          2.85154        0.88071        0.82159
C          4.34003        0.49729        0.76178
C          5.20034        1.46593        1.59997
C          4.99513        2.92671        1.15515
H          3.14209        3.27812        2.22368
H          3.35189        4.34252        0.85116
H          3.02302        2.38492       -0.70637
H          1.62154        2.60198        0.30216
H          4.49343       -0.53528        1.09773
H          4.66833        0.52080       -0.28414
H          4.92650        1.36783        2.65788
H          6.26226        1.18784        1.54565
H          5.37989        3.05338        0.13534
H          5.58630        3.61179        1.77928
C          2.71041       -4.27637       -1.07581
C          1.93570       -2.94336       -1.04942
C          2.57884       -1.95223       -0.07685
C          2.62138       -2.55861        1.33453
C          3.41866       -3.87716        1.33779
C          2.81602       -4.88417        0.33790
H          3.71794       -4.10175       -1.47307
H          2.23892       -4.98462       -1.77149
H          0.91443       -3.12574       -0.70800
H          1.84149       -2.50933       -2.05375
H          3.02263       -1.83996        2.06065
H          1.59702       -2.76052        1.66748
H          4.46101       -3.67163        1.06445
H          3.45871       -4.30509        2.34925
H          1.81865       -5.18284        0.68277
H          3.40664       -5.81102        0.31790
H         -0.76299       -3.17916       -1.78506
C         -2.11839       -4.75618       -2.30342
H         -3.52150       -0.43084        1.42623
C         -5.81737        0.78549       -0.26705
H         -3.24394       -2.42032       -2.04446
H         -0.43317       -5.06233       -0.14324
H         -2.06253       -4.81912        0.46496
H         -0.85297       -3.57543        0.71258
H         -1.35095       -5.51237       -2.47649
H         -2.99794       -5.26436       -1.90687
H         -2.39244       -4.32997       -3.26989
H         -6.60694       -1.84650        0.13851
H         -5.05332       -2.47011        0.69088
H         -5.86922       -1.21811        1.60551
H         -5.95649        1.20082        0.73160
H         -5.36709        1.56179       -0.88619
H         -6.80621        0.56801       -0.67377
Fe        -1.05973        2.67533        0.08359
C         -1.62371        4.20237        1.34286
C         -0.24807        3.80939        1.58390
C         -0.24341        2.40168        1.93235
C         -1.60799        1.91994        1.90302
C         -2.45964        3.02749        1.51378
H         -1.97104        5.20883        1.09765
H          0.61898        4.47415        1.57119
H          0.61193        1.81851        2.27335
H         -1.92375        0.91620        2.19457
H         -3.55019        3.00598        1.44520
Pd        -0.25712       -0.91502        0.96094
