171
-217.83850557
P         -1.52127        0.19704       -0.21256
P          1.68696       -0.66524        0.20629
C         -0.73463        0.73875       -1.73721
C          0.86258       -1.88585       -0.83691
C          0.03160       -0.17070       -2.45559
C          0.66907        0.25721       -3.63625
C          0.47083        1.55694       -4.07404
C         -0.31221        2.43865       -3.35820
C         -0.91254        2.02386       -2.18607
C          0.91891       -3.17506       -0.36116
C          0.27131       -4.19487       -1.03078
C         -0.45067       -3.90688       -2.16839
C         -0.53977       -2.61185       -2.65058
C          0.14099       -1.57587       -1.98365
Cl         1.10446       -0.26849        3.45008
Cl        -1.93657       -1.03814        2.88512
C         -1.37015       -2.35113       -3.85716
C          1.53064       -0.66764       -4.42287
H         -0.45266        3.44780       -3.70960
H         -1.52978        2.70231       -1.62292
H          1.46778       -3.37944        0.54648
H          0.32293       -5.20548       -0.65992
H          0.93151        1.87430       -4.99391
H         -0.96673       -4.69386       -2.69213
C         -4.55817       -2.96926       -1.35013
C         -3.70387       -3.21546       -0.28242
C         -2.80090       -2.22159        0.07036
C         -2.74273       -1.04722       -0.63600
C         -3.57902       -0.83049       -1.70451
C         -4.52239       -1.78193       -2.07236
H         -5.27184       -3.72597       -1.61633
H         -2.13789       -2.35383        0.90588
H         -3.48388        0.07989       -2.27114
C         -3.70712        3.74850        1.64519
C         -4.06275        3.30188        0.37948
C         -3.39055        2.19954       -0.13238
C         -2.37204        1.59876        0.56753
C         -2.03272        2.06794        1.81594
C         -2.70301        3.14104        2.38577
H         -4.22644        4.58385        2.07560
H         -3.66724        1.80695       -1.09441
H         -1.24499        1.59091        2.36624
C          5.65979       -2.48562        1.41319
C          5.21547       -2.61899        0.10282
C          3.99036       -2.05366       -0.22605
C          3.24648       -1.39390        0.72124
C          3.69953       -1.27621        2.00997
C          4.92092       -1.81989        2.38369
H          6.60364       -2.91323        1.69468
H          3.60442       -2.13914       -1.22858
H          3.07570       -0.77364        2.72538
C          2.80111        3.41615       -1.41836
C          1.84617        3.35139       -0.41032
C          1.48222        2.09515        0.05770
C          2.05974        0.96097       -0.46429
C          3.01735        1.04703       -1.44479
C          3.41147        2.28344       -1.94127
H          3.09770        4.37463       -1.80039
H          0.75322        2.00423        0.84324
H          3.46626        0.13902       -1.80793
Pd        -0.17056       -0.44089        1.61445
C         -5.17841       -4.67478        1.12244
C         -3.78579       -4.54517        0.47996
C         -2.72281       -4.62640        1.59400
C         -3.55228       -5.71083       -0.49849
H         -5.26263       -5.60255        1.68805
H         -5.36515       -3.84516        1.80407
H         -5.96404       -4.67107        0.36775
H         -2.78149       -5.58103        2.11635
H         -1.71730       -4.53561        1.18381
H         -2.86650       -3.83804        2.33253
H         -2.57574       -5.62376       -0.97345
H         -3.59016       -6.66864        0.02009
H         -4.30646       -5.72768       -1.28425
C         -6.50399       -2.62539       -3.43232
C         -5.50010       -1.47633       -3.21846
C         -4.72167       -1.25928       -4.52869
C         -6.28857       -0.19800       -2.87761
H         -7.19623       -2.38846       -4.24021
H         -5.99169       -3.54972       -3.69872
H         -7.09437       -2.80252       -2.53349
H         -3.99624       -0.45254       -4.43025
H         -4.18727       -2.16356       -4.81639
H         -5.39794       -1.00032       -5.34324
H         -5.62539        0.66210       -2.79593
H         -7.02595        0.02421       -3.64878
H         -6.81422       -0.31088       -1.92963
C         -4.69518        4.21851       -1.87578
C         -5.18715        3.95149       -0.43907
C         -5.63244        5.29441        0.17213
C         -6.39276        2.99673       -0.47136
H         -3.80231        4.84355       -1.86661
H         -4.45173        3.29301       -2.39572
H         -5.45952        4.73097       -2.45969
H         -4.79113        5.98214        0.25737
H         -6.38956        5.77052       -0.45086
H         -6.06656        5.15393        1.16167
H         -6.11756        2.03588       -0.90336
H         -6.76522        2.81244        0.53613
H         -7.20744        3.41308       -1.06355
C         -1.26205        2.81343        4.46153
C         -2.38152        3.64362        3.80096
C         -3.64390        3.53093        4.67572
C         -1.92808        5.11253        3.73050
H         -1.05260        3.17723        5.46717
H         -1.54737        1.76476        4.54376
H         -0.33588        2.87369        3.89173
H         -4.45480        4.14337        4.28338
H         -3.99226        2.49900        4.71473
H         -3.44248        3.85831        5.69552
H         -1.04782        5.21305        3.09744
H         -2.70996        5.74940        3.31846
H         -1.67625        5.49125        4.72091
C          5.16805       -4.55858       -1.48164
C          6.00850       -3.37151       -0.97493
C          7.34302       -3.91344       -0.42808
C          6.31200       -2.41634       -2.14416
H          4.92465       -5.23501       -0.66254
H          4.23171       -4.22035       -1.92429
H          5.70945       -5.12537       -2.23887
H          7.89427       -4.44048       -1.20678
H          7.97628       -3.10351       -0.06639
H          7.17646       -4.61483        0.38928
H          6.89427       -2.91795       -2.91690
H          5.39505       -2.05053       -2.60467
H          6.88200       -1.55431       -1.79826
C          6.80961       -0.97483        3.80139
C          5.45835       -1.71283        3.81813
C          5.64445       -3.12688        4.39807
C          4.48972       -0.93524        4.73134
H          7.20657       -0.86488        4.81043
H          7.54865       -1.51386        3.20984
H          6.69852        0.02063        3.37185
H          6.00677       -3.08281        5.42500
H          4.69967       -3.67015        4.39631
H          6.36270       -3.70287        3.81581
H          4.88546       -0.86394        5.74427
H          4.33476        0.07951        4.36550
H          3.52140       -1.43168        4.79031
C         -0.27267        4.63872        0.01376
C          1.24862        4.61139        0.23570
C          1.84671        5.89991       -0.36158
C          1.55405        4.59007        1.74487
H         -0.50552        4.68026       -1.04958
H         -0.74433        3.75134        0.42974
H         -0.72332        5.50964        0.48913
H          1.42014        6.78127        0.11728
H          2.92623        5.93570       -0.21617
H          1.63703        5.97206       -1.42867
H          1.18073        5.49005        2.23262
H          1.09376        3.73003        2.22843
H          2.62847        4.53448        1.91853
C          3.92741        3.05406       -4.27331
C          4.51671        2.42795       -2.99779
C          5.13856        1.06478       -3.35815
C          5.63425        3.33316       -2.44502
H          4.69650        3.18688       -5.03402
H          3.15024        2.41581       -4.69031
H          3.48662        4.02900       -4.06822
H          5.57661        0.59350       -2.47872
H          4.39404        0.38940       -3.77746
H          5.92946        1.18293       -4.09869
H          5.26633        4.33612       -2.23270
H          6.03956        2.92202       -1.52062
H          6.45142        3.42443       -3.16039
H         -2.31975       -2.88291       -3.78636
H          1.97658       -1.43108       -3.78332
H         -0.86359       -2.69043       -4.76171
H         -1.59208       -1.28928       -3.96926
H          2.34438       -0.12821       -4.90939
H          0.95476       -1.17082       -5.20041
