59
-75.80143852
Cl         1.67977        0.69478        2.33453
P          1.66110       -0.00866       -0.78504
P         -1.49759       -0.20617       -0.79731
C          0.72317        0.31763       -2.34069
H          0.50579        1.38546       -2.37781
H          1.37091        0.09132       -3.19323
C         -0.54420       -0.49016       -2.35646
H         -0.30984       -1.55590       -2.41311
H         -1.18301       -0.25104       -3.21220
C          2.64413       -1.57445       -0.96783
H          2.31619       -2.03839       -1.90583
C          3.06810        1.17880       -0.57891
H          3.27007        1.22263        0.49839
C         -2.52816       -1.66393       -0.27282
H         -2.19365       -1.92011        0.73991
C         -2.83406        1.07852       -0.92540
H         -3.10212        1.14160       -1.98712
C          4.10818       -1.08965       -1.07401
H          4.63209       -1.35313       -0.14507
H          4.63684       -1.63530       -1.86966
C          4.21231        0.44372       -1.29446
H          4.16042        0.67003       -2.36887
H          5.18708        0.82859       -0.95652
C         -3.96320       -1.10737       -0.23810
H         -4.48304       -1.41049       -1.15712
H         -4.53193       -1.56497        0.58538
C         -3.98393        0.43872       -0.12776
H         -3.88411        0.73120        0.92695
H         -4.95241        0.84559       -0.45735
C          2.41504       -2.52294        0.20574
H          2.55873       -1.96367        1.14011
H          3.20104       -3.29133        0.20352
C          2.77797        2.57925       -1.10390
H          3.71559        3.15121       -1.13954
H          2.44654        2.50958       -2.14751
C         -2.36905       -2.86524       -1.19915
H         -2.68771       -2.57619       -2.20933
H         -1.30636       -3.11825       -1.29502
C         -2.43226        2.45958       -0.40147
H         -3.33649        2.99134       -0.07355
H         -1.83114        2.33520        0.50813
C          1.04969       -3.18901        0.19127
H          0.91189       -3.78353       -0.71378
H          0.24959       -2.45004        0.21854
H          0.90763       -3.85397        1.04622
C          1.75161        3.31861       -0.25994
H          0.81946        2.75759       -0.19056
H          1.51658        4.30505       -0.66590
H          2.10945        3.45912        0.76178
C         -3.14571       -4.08559       -0.72732
H         -4.21579       -3.87894       -0.66926
H         -2.82398       -4.39500        0.26896
H         -3.01320       -4.93962       -1.39552
C         -1.69587        3.30612       -1.42671
H         -0.79608        2.80825       -1.78222
H         -2.31953        3.49590       -2.30248
H         -1.39739        4.27536       -1.02058
Cl        -1.64140        0.38259        2.32253
Pd         0.06034        0.16104        0.88193
