72
-108.40482412
Cl        -1.85515        0.77325        2.69231
Cl         0.91853       -0.82947        2.80351
P          1.08853       -1.13187       -0.26304
P         -2.22978        0.13796       -0.41218
C         -3.24473       -1.45192       -0.20814
C         -3.63890       -1.61633        1.26111
C         -4.48883       -1.39554       -1.08767
C         -3.30890        1.69070       -0.16562
C         -4.08304        2.01099       -1.45184
C         -1.41110        0.44577       -2.08476
C         -1.47280       -0.70593       -3.06691
C          1.15456        0.21170       -1.48529
C          0.00879        0.96988       -1.98428
C          0.55846        2.05124       -2.80536
C          1.99897        1.89731       -2.88632
C          2.36592        0.75503       -2.07277
C         -2.38301       -2.64535       -0.59320
H         -2.76385       -1.59860        1.91079
H         -4.32089       -0.83995        1.59661
H         -5.17564       -0.61672       -0.76098
H         -5.03106       -2.34155       -1.04522
C         -4.30486        1.54626        0.98151
H         -3.44527        2.45545       -2.21521
H         -4.87210        2.73764       -1.25109
H         -2.00494        1.26316       -2.50327
H         -0.82569       -1.51734       -2.74271
H         -1.11175       -0.39950       -4.05084
H         -2.48329       -1.09126       -3.19595
H         -0.03570        2.76046       -3.38504
H          2.68339        2.52177       -3.46414
Pd        -0.52543       -0.21493        1.19225
H          3.37490        0.38316       -1.88320
C         -2.33900        2.82203        0.14074
H         -4.55216        1.12396       -1.87398
H         -4.79163        2.50124        1.18445
H         -5.09334        0.83537        0.74204
H         -3.81518        1.23457        1.90134
H         -1.55638        2.88129       -0.61696
H         -2.85559        3.78353        0.16842
H         -1.87233        2.67236        1.11325
H         -4.14306       -2.57143        1.41731
H         -4.23569       -1.20781       -2.12981
H         -1.47377       -2.66246        0.00514
H         -2.91331       -3.58162       -0.41061
H         -2.10935       -2.63413       -1.64495
C          2.75476       -1.25208        0.44394
C          3.17513       -2.22883        1.31230
C          4.50762       -1.95747        1.62222
C          4.84890       -0.82486        0.92565
O          3.78258       -0.38193        0.19794
H          2.57729       -3.03692        1.69986
H          5.14334       -2.52397        2.28294
H          5.81695       -0.33956        0.94165
C          0.71226       -2.73541       -0.99499
C          0.62969       -3.89662       -0.26648
C          0.33002       -4.92212       -1.16427
C          0.24294       -4.34250       -2.40617
O          0.47161       -2.99899       -2.31575
H          0.75272       -3.98797        0.80061
H          0.19359       -5.96493       -0.92871
H          0.02329       -4.86024       -3.33163
Fe         1.35277        2.10042       -0.91860
C          2.25914        3.82758       -0.45447
C          3.02484        2.70648        0.06368
C          2.17113        1.96295        0.96907
C          0.88821        2.62991        1.02125
C          0.93808        3.78736        0.14774
H          2.62719        4.59187       -1.14352
H          4.06218        2.46366       -0.17865
H          2.44338        1.06151        1.52121
H          0.06484        2.34037        1.67588
H          0.14365        4.52313        0.00286
