111
-148.55165068
P         -1.46461        2.68140        1.16433
P         -0.32775       -0.20518        0.53567
C         -0.96767        1.58624        2.52569
C         -0.54137        0.30366        2.25177
C         -0.29172        4.10564        1.03716
C          0.47770        4.05169       -0.26579
C         -0.98159        2.03960        3.82937
H         -1.27203        3.05656        4.03586
C         -0.59760        1.19584        4.85738
H         -0.61305        1.54872        5.87565
C         -0.18842       -0.09453        4.58019
H          0.11529       -0.74931        5.38032
C         -0.14954       -0.53885        3.27072
H          0.20125       -1.53069        3.03189
Pd        -1.67357        1.25876       -0.64602
Cl        -3.28147        2.55651       -1.50394
Cl        -1.60043       -0.26022       -2.30611
C         -1.20566        5.33885        1.18373
C         -3.04284        3.59337        1.49527
H          1.07438        3.14031       -0.34032
H         -0.20544        4.06452       -1.11756
H          1.15290        4.90460       -0.36704
H         -1.42216        5.73627        0.18268
H         -0.67710        6.14679        1.71176
H         -3.56092        3.65242        0.52949
C         -2.54319        4.99218        1.89819
C         -3.92175        2.90167        2.51539
H          0.38301        4.02017        1.89877
H         -2.39989        5.02003        2.98699
H         -3.31230        5.74980        1.68304
H         -4.85931        3.44212        2.66406
H         -4.16393        1.88364        2.20195
H         -3.42692        2.83618        3.48448
C         -0.82164       -4.67958       -0.15051
C         -1.91655       -3.91412        0.32656
C         -1.72348       -2.56100        0.55551
C         -0.52660       -1.96120        0.26412
C          0.49966       -2.67554       -0.29666
C          0.37213       -4.02978       -0.55495
O         -0.90949       -6.09659       -0.19439
C         -3.29404       -4.53428        0.60866
H         -2.51001       -1.95146        0.96660
H          1.41043       -2.15502       -0.53579
C          1.52264       -4.76769       -1.25774
C          3.66587        1.38555       -0.97547
C          3.34977        1.47151        0.40473
C          2.14688        0.93938        0.83697
C          1.25213        0.40473       -0.05222
C          1.50457        0.42285       -1.39822
C          2.68636        0.93910       -1.89871
O          4.96990        1.72069       -1.42753
C          4.29451        2.11936        1.42879
H          1.88850        0.94081        1.88107
H          0.74121        0.04770       -2.05680
C          2.88479        1.01018       -3.42070
C         -4.41457       -3.48937        0.40444
C         -3.58566       -5.69730       -0.35725
C         -3.34203       -5.02843        2.06222
C          0.99103       -5.92329       -2.12493
C          2.28507       -3.81047       -2.20286
C          2.50430       -5.30302       -0.20476
C         -0.46880       -6.74237        0.99333
H         -4.33445       -3.02266       -0.57702
H         -5.39670       -3.95641        0.47401
H         -4.37897       -2.70682        1.16082
H         -3.50550       -5.36533       -1.39182
H         -2.88524       -6.51652       -0.21478
H         -4.58971       -6.09207       -0.20401
H         -3.16638       -4.20563        2.75487
H         -4.31334       -5.46430        2.29463
H         -2.58206       -5.78388        2.24678
H          0.50767       -6.68493       -1.51817
H          0.26027       -5.55688       -2.84515
H          1.79902       -6.40424       -2.67565
H          1.59657       -3.31230       -2.88499
H          2.83303       -3.04853       -1.65036
H          3.01368       -4.35626       -2.80186
H          2.01509       -5.99896        0.47254
H          3.33804       -5.82231       -0.67667
H          2.90962       -4.48749        0.39378
H         -1.28122       -7.33942        1.40724
H          0.35985       -7.41080        0.76030
H         -0.14635       -6.00571        1.73023
C          5.87191        0.62198       -1.45782
C          5.25971        1.05627        1.97386
C          5.08405        3.27871        0.79430
C          3.49608        2.71373        2.61146
C          1.52758        1.19540       -4.13795
C          3.76384        2.21286       -3.80878
C          3.52522       -0.29634       -3.91250
H          5.86136        0.62524        1.17729
H          5.93648        1.48517        2.71244
H          4.70975        0.24497        2.45025
H          4.40537        4.01511        0.36502
H          5.70580        3.78115        1.53485
H          5.73823        2.92532        0.00101
H          3.02312        1.93762        3.21136
H          4.15119        3.27633        3.27618
H          2.72213        3.39178        2.25384
H          0.89990        0.30996       -4.04991
H          0.98281        2.04377       -3.72439
H          1.67384        1.37822       -5.20215
H          4.76887        2.11626       -3.40572
H          3.85017        2.30230       -4.89136
H          3.33746        3.13901       -3.42465
H          2.88769       -1.14840       -3.67909
H          4.48979       -0.46552       -3.43983
H          3.67730       -0.27481       -4.99129
H          5.38024       -0.28443       -1.10219
H          6.22667        0.46750       -2.47665
H          6.73341        0.84005       -0.82684
