111
-148.55702441
P         -2.58237        1.90111        1.07534
P          0.18601        0.50102        0.43347
C         -1.42439        1.53862        2.42177
C         -0.19557        0.98676        2.12998
C         -3.48460        3.49192        1.35871
C         -2.93312        4.60650        0.49669
C         -1.76524        1.80734        3.73200
H         -2.73485        2.22052        3.95672
C         -0.86742        1.52900        4.74820
H         -1.13295        1.73781        5.77169
C          0.36647        0.98190        4.45288
H          1.06431        0.76258        5.24415
C          0.70124        0.70530        3.13970
H          1.65251        0.26030        2.89467
Pd        -1.36664        1.64611       -0.86753
Cl        -3.12308        2.46594       -1.99042
Cl        -0.00768        1.24222       -2.61011
C         -4.94646        3.10903        1.06293
C         -4.00851        0.72652        0.96235
H         -1.87345        4.77818        0.70022
H         -3.02708        4.36150       -0.56200
H         -3.46798        5.54395        0.66582
H         -5.15795        3.31845        0.00521
H         -5.63488        3.74960        1.63503
H         -4.07716        0.43464       -0.09429
C         -5.21230        1.60419        1.35477
C         -3.80029       -0.48685        1.84224
H         -3.36316        3.73376        2.42217
H         -5.41314        1.46965        2.42654
H         -6.12141        1.25924        0.83916
H         -4.65707       -1.16329        1.80009
H         -2.91397       -1.04699        1.53861
H         -3.66065       -0.19105        2.88362
C         -1.27767       -3.77125       -0.18628
C         -0.98250       -3.31032        1.12225
C         -0.51550       -2.01567        1.27265
C         -0.39599       -1.17776        0.19550
C         -0.76074       -1.59139       -1.05736
C         -1.25294       -2.86530       -1.27724
O         -1.56438       -5.14459       -0.40745
C         -1.13402       -4.20038        2.36551
H         -0.23587       -1.64131        2.24145
H         -0.64856       -0.89469       -1.86919
C         -1.74168       -3.23869       -2.68532
C          4.62579        0.63337       -0.56198
C          4.08706       -0.46569        0.15474
C          2.72780       -0.47081        0.41968
C          1.93507        0.59264        0.07474
C          2.47026        1.70567       -0.51760
C          3.82002        1.77147       -0.82294
O          5.95838        0.57834       -1.05042
C          4.93924       -1.65789        0.61765
H          2.26193       -1.32053        0.88891
H          1.80824        2.51779       -0.76353
C          4.37649        3.04666       -1.47533
C         -1.42511       -3.34706        3.62144
C         -2.31251       -5.17754        2.20444
C          0.17196       -4.97621        2.59468
C         -2.87685       -4.27642       -2.62208
C         -2.31007       -1.99511       -3.40852
C         -0.56395       -3.78770       -3.50420
C         -0.42246       -5.93077       -0.72399
H         -2.28036       -2.69236        3.45741
H         -1.65197       -3.98348        4.47647
H         -0.57005       -2.73265        3.89957
H         -2.14273       -5.87190        1.38523
H         -2.46042       -5.76591        3.10965
H         -3.23464       -4.63536        1.99751
H          0.09998       -5.60992        3.47824
H          0.40752       -5.61127        1.74417
H          1.00706       -4.29066        2.73758
H         -2.53459       -5.21401       -2.19148
H         -3.69885       -3.90815       -2.00911
H         -3.26578       -4.49300       -3.61670
H         -2.77946       -2.27598       -4.35090
H         -3.06182       -1.49928       -2.79487
H         -1.53056       -1.27217       -3.64381
H         -0.87878       -4.04881       -4.51419
H          0.23101       -3.04607       -3.57935
H         -0.14318       -4.67774       -3.04240
H         -0.54713       -6.37828       -1.70983
H          0.47806       -5.31532       -0.71484
H         -0.32045       -6.73531        0.00415
C          6.07707        0.00132       -2.34492
C          4.35635       -2.27362        1.91076
C          4.94430       -2.73527       -0.47743
C          6.37920       -1.21969        0.94057
C          5.84143        3.28711       -1.06775
C          4.26321        2.92309       -3.00253
C          3.57452        4.28778       -1.02206
H          4.21758       -1.50968        2.67539
H          3.39752       -2.75786        1.73138
H          5.02645       -3.03259        2.31394
H          3.93003       -3.07258       -0.69024
H          5.36698       -2.35437       -1.40397
H          5.53071       -3.60100       -0.17068
H          6.88792       -0.84378        0.05654
H          6.38024       -0.42726        1.68826
H          6.96485       -2.05285        1.32831
H          5.93534        3.33276        0.01670
H          6.48916        2.49058       -1.42506
H          6.21420        4.22422       -1.48049
H          4.63427        3.82091       -3.49606
H          4.83435        2.07537       -3.37302
H          3.22500        2.77777       -3.30033
H          4.04454        5.20357       -1.37987
H          3.52346        4.34063        0.06514
H          2.55873        4.27672       -1.41432
H          6.72272       -0.87540       -2.29755
H          5.09602       -0.28881       -2.72323
H          6.53094        0.72112       -3.02589
