72
-98.09972706
Fe        -0.02375        2.80298       -0.04968
P          1.81122       -0.06715       -0.01963
P         -1.93869       -0.04902        0.00457
C          1.42174        1.59095        0.65825
C          0.44971        1.86879        1.70025
C          0.41894        3.30312        1.92328
C          1.37729        3.91259        1.02035
C          2.01797        2.85559        0.25723
C         -1.44901        1.56320       -0.71267
C         -2.02507        2.86148       -0.40288
C         -1.34024        3.85831       -1.21021
C         -0.36997        3.17707       -2.04913
C         -0.42946        1.76128       -1.72959
C          3.07152       -0.83203        1.10062
C          4.35086       -0.08027        0.69737
C          2.95336        0.13889       -1.47135
C          4.33055        0.35819       -0.80056
C         -3.38994       -0.65404       -0.97853
C         -4.54713        0.12060       -0.32653
C         -2.83769        0.18015        1.61645
C         -4.31907        0.34244        1.19536
H         -0.14330        1.12303        2.22814
H         -0.21005        3.82776        2.64569
H          1.60277        4.97890        0.95053
H          2.78916        2.98765       -0.50379
H         -2.82880        3.04725        0.31285
H          0.16689        0.97267       -2.19071
Cl         1.41317       -3.17084        0.00104
Cl        -1.65675       -3.06632       -0.24847
Pd        -0.06799       -1.46355       -0.04958
H          3.15447       -1.89047        0.82926
C          2.68627       -0.69242        2.56691
H          2.62692        1.02941       -2.02192
C          2.95903       -1.07688       -2.39612
H          5.24041       -0.69111        0.91514
H          4.44484        0.80632        1.34122
H          4.63763        1.41064       -0.89165
H          5.09012       -0.20576       -1.36037
H         -1.54995        4.93047       -1.21577
H          0.29144        3.64439       -2.78212
H          2.57414        0.37340        2.80548
H          3.81031       -0.99362       -3.08631
H         -3.49073       -1.72746       -0.78239
C         -3.25829       -0.39861       -2.47572
H         -2.45394        1.09863        2.07601
C         -2.63971       -1.01104        2.55620
H         -5.50434       -0.39079       -0.51280
H         -4.63568        1.09371       -0.83119
H         -4.69927        1.32863        1.50053
H         -4.92448       -0.38092        1.75887
H         -4.22159       -0.60921       -2.96074
H         -2.81260       -1.93368        1.98618
C          3.68683       -1.34321        3.50980
H          3.79396       -2.40798        3.29443
H          4.67636       -0.89351        3.41101
H          3.38632       -1.24763        4.55568
C          1.67982       -1.25984       -3.19283
H          1.44896       -0.37269       -3.78545
H          1.74291       -2.10701       -3.87967
H          0.83380       -1.44557       -2.53458
C         -2.15871       -1.21672       -3.12726
H         -2.32044       -2.28625       -2.98076
H         -2.08883       -1.03468       -4.20207
H         -1.19110       -0.97612       -2.69056
C         -1.28254       -1.05740        3.23748
H         -0.47545       -1.10079        2.50880
H         -1.11821       -0.17332        3.85633
H         -1.17979       -1.93160        3.88450
H          1.69098       -1.12924        2.71814
H          3.16272       -1.97241       -1.79437
H         -3.08172        0.67278       -2.63795
H         -3.42724       -0.99458        3.32278
