87
-129.18603533
P         -1.70345       -0.38777       -0.10491
P          1.56748        0.34369       -0.19511
C         -1.45684        0.92965       -1.32187
C          1.32009       -0.67228       -1.65585
C         -0.50544        0.88051       -2.33943
C         -0.30698        2.02236       -3.13974
C         -1.08046        3.14906       -2.92170
C         -2.02742        3.17624       -1.92206
C         -2.20431        2.06612       -1.12009
C          2.12295       -1.76778       -1.85904
C          1.94715       -2.55727       -2.97815
C          0.96236       -2.24053       -3.89005
C          0.13975       -1.14195       -3.70242
C          0.32439       -0.33300       -2.56320
Cl         1.34157        1.15338        2.90411
Cl        -1.40027       -0.59019        3.10619
H         -2.61735        4.06296       -1.75727
H         -2.92879        2.08948       -0.32279
H          2.89401       -2.00386       -1.14477
H          2.57476       -3.41908       -3.13554
H         -0.92573        4.01667       -3.54055
H          0.81867       -2.85632       -4.76163
C         -0.80187       -4.62778       -1.46774
C         -0.29828       -4.17436       -0.25627
C         -0.60699       -2.88060        0.14486
C         -1.38078       -2.06689       -0.65067
C         -1.90019       -2.53368       -1.83479
C         -1.60829       -3.82073       -2.24642
H         -0.55845       -5.62392       -1.79589
C          0.58904       -5.03292        0.57414
H         -0.26415       -2.51821        1.09884
H         -2.51197       -1.88317       -2.43926
H         -1.99862       -4.18804       -3.18134
C         -5.87017       -0.06133        1.70364
C         -5.60302       -1.02439        0.75085
C         -4.33449       -1.12747        0.21136
C         -3.34412       -0.26727        0.62548
C         -3.60967        0.69432        1.57305
C         -4.87570        0.80560        2.13475
H         -6.85791        0.02241        2.12392
H         -6.38186       -1.69564        0.42788
H         -4.11153       -1.87696       -0.53028
H         -2.82279        1.35528        1.89736
C         -5.15694        1.85351        3.15342
C          4.95623       -1.39340        2.30830
C          5.07987       -0.12534        1.77553
C          4.05708        0.40494        1.01217
C          2.92264       -0.33712        0.78263
C          2.79599       -1.59878        1.31631
C          3.80959       -2.14544        2.09284
H          5.75266       -1.80878        2.90193
H          5.97103        0.45271        1.95755
H          4.13539        1.39775        0.60063
H          1.90329       -2.16955        1.12688
C          3.66931       -3.51746        2.65204
C          2.39399        4.63780       -1.41767
C          3.13398        3.60973       -1.96835
C          2.88996        2.30331       -1.58695
C          1.91708        2.04104       -0.65132
C          1.18425        3.06259       -0.09373
C          1.40336        4.37906       -0.48021
H          2.58076        5.65566       -1.71485
H          3.89624        3.82368       -2.69947
H          3.44436        1.48546       -2.02016
H          0.42974        2.83905        0.64148
C          0.61031        5.48331        0.12451
Pd        -0.06719        0.15994        1.46701
C          0.72441        2.05110       -4.21430
C         -0.92050       -0.84435       -4.70493
H          0.26490        1.94676       -5.19786
H          1.27409        2.99330       -4.19918
H          1.45132        1.24733       -4.09331
H         -1.47471       -1.74756       -4.96433
H         -1.63804       -0.11655       -4.32442
H         -0.48679       -0.44289       -5.62161
H          1.63215       -4.90817        0.27988
H          0.50461       -4.77844        1.63163
H          0.33142       -6.08732        0.46542
H         -6.01539        1.58505        3.77066
H         -4.30221        1.99089        3.81744
H         -5.37059        2.81088        2.67609
H          2.66079       -3.68036        3.03503
H          3.86560       -4.26998        1.88701
H          4.36625       -3.68364        3.47456
H          1.07109        5.82837        1.05108
H          0.53688        6.33423       -0.55420
H         -0.40452        5.15530        0.35482
