111
-148.55045588
P         -2.72053        2.00919       -0.34249
P          0.04978        0.58262        0.29735
C         -1.90559        2.27520        1.25816
C         -0.68543        1.68799        1.51392
C         -3.62925        3.53549       -0.86881
C         -3.20177        3.99486       -2.24507
C         -2.50703        3.05507        2.22565
H         -3.46721        3.50288        2.02838
C         -1.88108        3.24644        3.44547
H         -2.35131        3.85473        4.20080
C         -0.65703        2.65716        3.69718
H         -0.17134        2.80325        4.64794
C         -0.05875        1.87166        2.72846
H          0.88916        1.39076        2.91295
Pd        -1.13892        0.94006       -1.65459
Cl        -2.54476        1.14122       -3.38597
Cl         0.54746       -0.05789       -2.75943
C         -5.10935        3.10715       -0.78121
C         -4.11816        0.79970       -0.26143
H         -3.70445        4.92108       -2.53344
H         -2.12363        4.16540       -2.29065
H         -3.44860        3.24235       -2.99485
H         -5.68959        3.63469       -1.55225
H         -5.53618        3.42835        0.18030
H         -3.82100       -0.07076       -0.86256
C         -5.27690        1.56834       -0.92873
C         -4.39306        0.38687        1.16810
H         -3.39651        4.31017       -0.12583
H         -6.23358        1.23878       -0.49769
H         -5.32734        1.31037       -1.99692
H         -5.20823       -0.33833        1.22722
H         -3.50828       -0.05945        1.62709
H         -4.67482        1.25172        1.77149
C         -1.12681       -3.73493        1.15521
C         -0.40516       -3.40876       -0.02118
C         -0.10390       -2.07854       -0.25399
C         -0.41111       -1.10951        0.66282
C         -1.01313       -1.43252        1.85027
C         -1.35848       -2.74170        2.14137
O         -1.64484       -5.04522        1.33530
C          0.03848       -4.45842       -1.05168
H          0.36206       -1.76942       -1.17334
H         -1.21117       -0.64151        2.55137
C         -1.99165       -3.07033        3.50277
C          4.58626        0.89352        0.05787
C          3.78367        1.66795       -0.81881
C          2.40651        1.59151       -0.68918
C          1.82952        0.72453        0.20070
C          2.59876       -0.10524        0.97438
C          3.98146       -0.07091        0.90340
O          5.99028        1.10212        0.11019
C          4.38273        2.57395       -1.90637
H          1.76030        2.19911       -1.29895
H          2.09756       -0.79217        1.63464
C          4.80007       -1.06360        1.74359
C         -1.04771       -4.60324       -2.12822
C          1.35539       -4.02249       -1.73543
C          0.31268       -5.81676       -0.38150
C         -3.52244       -3.02763        3.38166
C         -1.53849       -4.45651        3.99601
C         -1.55745       -2.04375        4.57345
C         -2.93504       -5.24214        0.77050
H         -1.21758       -3.65243       -2.63304
H         -0.75755       -5.33714       -2.87957
H         -1.99338       -4.92027       -1.69516
H          1.74400       -4.81859       -2.36996
H          1.21180       -3.14982       -2.37061
H          2.11674       -3.78398       -0.99331
H          1.05501       -5.71093        0.40897
H         -0.58879       -6.23096        0.06238
H          0.68727       -6.54162       -1.10381
H         -3.99565       -3.25375        4.33687
H         -3.85751       -2.04047        3.06579
H         -3.88103       -3.74847        2.65146
H         -0.45147       -4.50923        4.04729
H         -1.93592       -4.66880        4.98821
H         -1.87994       -5.24479        3.32931
H         -1.90077       -2.34772        5.56206
H         -0.47187       -1.95531        4.60912
H         -1.97737       -1.05774        4.37887
H         -2.88150       -5.99234       -0.01803
H         -3.61623       -5.60656        1.53939
H         -3.31681       -4.30740        0.35779
C          6.39361        2.10329        1.03573
C          3.42669        2.67171       -3.11770
C          4.60007        3.98300       -1.33540
C          5.71233        2.00306       -2.43245
C          4.00543       -2.36967        1.97493
C          6.10352       -1.45327        1.02299
C          5.11742       -0.43408        3.10820
H          3.14276        1.67954       -3.46779
H          2.51869        3.22027       -2.87227
H          3.90272        3.19593       -3.94597
H          5.01390        4.65058       -2.09075
H          3.65827        4.40772       -0.98875
H          5.28528        3.96485       -0.49125
H          6.46958        1.97759       -1.65285
H          5.57451        0.98583       -2.79750
H          6.10230        2.60761       -3.25090
H          3.65390       -2.78235        1.02967
H          4.62952       -3.12199        2.45669
H          3.14349       -2.20907        2.62090
H          6.65378       -2.20566        1.58741
H          5.88878       -1.85954        0.03514
H          6.75784       -0.59436        0.89538
H          5.69686        0.47907        2.99530
H          5.68946       -1.12084        3.73160
H          4.19960       -0.18091        3.63845
H          6.92133        2.89784        0.50853
H          5.52562        2.52013        1.54811
H          7.07481        1.66997        1.76788
