59
-75.79865273
Cl         1.33071        0.61495        2.40970
P          1.45676        0.03760       -0.77531
P         -1.72036       -0.19237       -0.83916
C          0.49965        0.43436       -2.30778
H          0.22158        1.49031       -2.27870
H          1.15471        0.29310       -3.17313
C         -0.72400       -0.43446       -2.37329
H         -0.44497       -1.48837       -2.44098
H         -1.35246       -0.20735       -3.23999
C          2.39433       -1.52981       -1.06488
H          1.92880       -1.99142       -1.94631
C          2.86811        1.20740       -0.50154
H          2.77964        1.55245        0.53642
C         -2.98782       -1.51368       -0.56122
H         -3.01660       -1.67730        0.52321
C         -2.83694        1.28130       -1.01256
H         -2.72751        1.62614       -2.04782
C          3.80752       -1.01705       -1.40266
H          4.55207       -1.78449       -1.14486
H          3.89819       -0.87447       -2.49008
C          4.12415        0.32565       -0.68425
H          4.88431        0.88194       -1.24977
H          4.58660        0.12589        0.29264
C         -4.28652       -0.83720       -1.03006
H         -4.42106       -1.03359       -2.10297
H         -5.15697       -1.29361       -0.53395
C         -4.24385        0.69422       -0.78175
H         -4.54378        0.89935        0.25515
H         -4.98386        1.21407       -1.40884
C          2.32678       -2.49349        0.12148
H          2.71806       -3.47305       -0.18773
H          1.27320       -2.67022        0.37390
C          2.80252        2.40682       -1.44065
H          2.92378        2.05451       -2.47345
H          1.79509        2.84182       -1.39782
C         -2.67134       -2.82284       -1.27431
H         -3.54936       -3.48150       -1.22024
H         -2.53002       -2.62066       -2.34386
C         -2.49433        2.40970       -0.04241
H         -3.32152        3.13327       -0.03653
H         -2.46388        2.00097        0.97609
C          3.07012       -2.02358        1.36180
H          4.14615       -1.97036        1.18962
H          2.91298       -2.69249        2.21111
H          2.74274       -1.02998        1.66583
C          3.83348        3.48005       -1.11909
H          3.75269        4.33850       -1.78989
H          4.85231        3.09852       -1.20120
H          3.71084        3.84885       -0.09894
C         -1.45596       -3.53084       -0.69790
H         -0.56841       -2.90169       -0.75929
H         -1.23487       -4.46326       -1.22228
H         -1.60279       -3.77209        0.35662
C         -1.19182        3.12569       -0.36414
H         -1.20624        3.53831       -1.37463
H         -0.99810        3.95080        0.32505
H         -0.33869        2.45058       -0.30254
Cl        -1.81169       -0.22643        2.38790
Pd        -0.18119        0.01099        0.86637
