105
-153.06689194
Cl        -0.00795        1.92872        3.07105
Pd        -0.47652        1.27929        0.96295
P         -1.12404        0.49708       -1.16000
N         -0.73973       -1.01879       -1.97085
C          0.18564       -2.00288       -1.62471
C          0.32589       -2.48197       -0.29761
C          1.29090       -3.47267       -0.02070
C          1.41406       -3.99773        1.39021
C          2.24355       -5.28413        1.52560
C          3.51330       -5.20963        0.67304
C          3.15773       -5.01854       -0.80867
C          2.09268       -3.97800       -1.04811
C          1.89966       -3.52753       -2.34791
C          0.96284       -2.56971       -2.63391
H          0.83681       -2.21943       -3.64352
H          2.50807       -3.93634       -3.13685
H          4.05310       -4.74651       -1.38235
H          4.12913       -4.36699        1.01185
H          2.49259       -5.47995        2.57813
H          1.85812       -3.21140        2.01127
C         -0.67010       -2.12479        0.74106
C         -0.24274       -1.54208        1.96557
C         -1.17363       -1.40796        3.00005
C         -2.47413       -1.80821        2.83659
C         -2.91326       -2.36987        1.64387
C         -4.35074       -2.82534        1.56176
C         -4.81563       -3.20609        0.14688
C         -3.73533       -4.00774       -0.58347
C         -2.43923       -3.19215       -0.69707
C         -2.01025       -2.53151        0.59081
H         -1.62480       -3.83209       -1.05891
H         -4.08752       -4.32474       -1.57535
H         -5.03670       -2.29641       -0.42475
H         -4.99434       -2.03836        1.97441
H         -3.17602       -1.69072        3.64487
H         -0.85942       -0.95584        3.92438
N          1.05498       -1.04051        2.14624
P          1.60680        0.18628        1.00683
C          2.61868       -0.35749       -0.35693
C          3.65682       -1.23187       -0.14670
C          4.47793       -1.58132       -1.20384
C          4.27078       -1.04271       -2.46742
C          3.22357       -0.14918       -2.65128
C          2.40483        0.19941       -1.59293
H          1.59126        0.89246       -1.72354
H          3.04906        0.26726       -3.62849
C          5.12559       -1.45316       -3.61504
H          5.28330       -2.27973       -1.05366
H          3.81721       -1.63636        0.84007
C          2.53201        1.50072        1.80713
C          2.53129        2.75399        1.24128
C          3.24523        3.77648        1.83936
C          3.96353        3.54822        3.00539
C          3.96818        2.26992        3.54771
C          3.25268        1.24843        2.94950
H          3.26056        0.25425        3.36594
H          4.53590        2.07941        4.44243
C          4.74883        4.64382        3.63818
H          3.24683        4.76067        1.40298
H          1.97050        2.92859        0.33595
H          1.21425       -0.61454        3.05009
H         -1.01093       -0.92755       -2.94179
C         -0.61619        1.86759       -2.21106
C         -0.85132        3.16066       -1.80933
C         -0.44431        4.21822       -2.59972
C          0.19633        3.98864       -3.80932
C          0.42726        2.67744       -4.20195
C          0.01645        1.62272       -3.40775
H          0.20680        0.60737       -3.71207
H          0.93518        2.48751       -5.13210
C          0.66386        5.12674       -4.64821
H         -0.62077        5.23094       -2.27969
H         -1.35748        3.33643       -0.87497
C         -2.91927        0.53720       -1.10416
C         -3.59580        0.82064       -2.26690
C         -4.97917        0.84787       -2.27044
C         -5.69334        0.58955       -1.10842
C         -4.99181        0.31485        0.05675
C         -3.61006        0.27417        0.05323
H         -3.06333        0.05483        0.95602
H         -5.53545        0.13702        0.96868
C         -7.18116        0.64425       -1.09874
H         -5.51236        1.07578       -3.17752
H         -3.03835        1.02355       -3.16802
Cl        -2.29227        2.61719        1.00096
H          2.81632       -5.97054       -1.23242
H          1.64018       -6.14159        1.20208
H          4.13388       -6.10558        0.81625
H          0.40690       -4.15768        1.79537
H         -3.53462       -4.93441       -0.03129
H         -2.56374       -2.41379       -1.45859
H         -4.47801       -3.68408        2.23179
H         -5.76039       -3.76678        0.18243
H          4.69749       -2.31644       -4.12645
H          5.22321       -0.64547       -4.34178
H          6.12904       -1.72249       -3.28249
H          5.75919        4.68284        3.22881
H          4.27865        5.61340        3.46823
H          4.82744        4.49961        4.71662
H          0.67826        4.85734       -5.70524
H          0.00966        5.99257       -4.53665
H          1.67288        5.42829       -4.36379
H         -7.59041        0.44310       -2.08975
H         -7.59631       -0.09579       -0.41298
H         -7.52995        1.62861       -0.78375
