59
-75.79754772
Cl         1.47449        0.61803        2.43039
P          1.51286        0.07602       -0.83480
P         -1.62346       -0.31554       -0.76246
C          0.51551        0.14568       -2.38941
H          0.16618        1.17169       -2.52910
H          1.16178       -0.10183       -3.23746
C         -0.65063       -0.79227       -2.25890
H         -0.30023       -1.81872       -2.13623
H         -1.30796       -0.76728       -3.13354
C          2.76789       -1.28446       -0.88660
H          2.61260       -1.83659       -1.82194
C          2.62007        1.53836       -0.56005
H          2.22578        2.08118        0.30822
C         -2.93125       -1.51783       -0.21645
H         -2.60961       -1.92510        0.75036
C         -2.67218        1.17064       -1.12421
H         -2.45770        1.47576       -2.15609
C          4.10535       -0.51589       -0.90452
H          4.88307       -1.11332       -0.40655
H          4.44968       -0.38846       -1.94156
C          3.97441        0.87842       -0.23292
H          4.79989        1.53386       -0.54365
H          4.07943        0.76690        0.85656
C         -4.16408       -0.60667       -0.04496
H         -5.08421       -1.18543       -0.21264
H         -4.22261       -0.25372        0.99552
C         -4.10627        0.61832       -0.99586
H         -4.78049        1.41302       -0.64436
H         -4.48525        0.32640       -1.98653
C          2.62814       -2.22731        0.30520
H          2.61178       -1.62848        1.22557
H          3.53217       -2.84773        0.38085
C          2.64997        2.45994       -1.77529
H          3.06448        1.90588       -2.62780
H          1.62053        2.70841       -2.06483
C         -3.15586       -2.66230       -1.20756
H         -4.16949       -3.06281       -1.06661
H         -3.14982       -2.25485       -2.22671
C         -2.38033        2.32749       -0.17099
H         -3.20489        3.05217       -0.22248
H         -2.39693        1.94623        0.85852
C          1.40031       -3.12172        0.22913
H          1.32216       -3.78490        1.09360
H          1.42369       -3.74807       -0.66464
H          0.48219       -2.53607        0.18641
C          3.43283        3.74472       -1.54156
H          4.48171        3.54459       -1.31836
H          3.02583        4.30404       -0.69698
H          3.40723        4.40281       -2.41321
C         -2.14905       -3.79482       -1.06939
H         -2.33494       -4.59738       -1.78685
H         -2.18583       -4.23410       -0.07055
H         -1.12810       -3.45091       -1.22578
C         -1.06468        3.03525       -0.45880
H         -0.22003        2.35014       -0.39545
H         -1.05635        3.46025       -1.46428
H         -0.87503        3.84969        0.24396
Cl        -1.67469       -0.16558        2.40335
Pd        -0.02570       -0.00103        0.88587
