111
-148.55702412
P         -2.39644        2.47900       -0.08756
P         -0.11313        0.34805        0.43969
C         -1.76330        2.24133        1.58972
C         -0.81090        1.27413        1.82243
C         -2.40508        4.25995       -0.58150
C         -1.35184        4.52094       -1.63638
C         -2.26484        2.98518        2.63836
H         -3.00785        3.74215        2.44560
C         -1.81714        2.74677        3.92636
H         -2.20834        3.32562        4.74702
C         -0.87855        1.76036        4.16179
H         -0.53656        1.56801        5.16541
C         -0.37605        1.01978        3.10683
H          0.35068        0.24047        3.27605
Pd        -1.28392        0.99844       -1.46815
Cl        -2.79522        1.52107       -3.04161
Cl        -0.20603       -0.62095       -2.59119
C         -3.85262        4.48557       -1.05791
C         -4.20792        2.10066       -0.19988
H         -1.35404        5.56656       -1.95349
H         -0.35177        4.27912       -1.26779
H         -1.53214        3.90641       -2.52080
H         -3.88835        4.35380       -2.14811
H         -4.15822        5.52722       -0.87666
H         -4.33398        1.49880       -1.10946
C         -4.84202        3.49108       -0.38748
C         -4.70432        1.34033        1.01210
H         -2.20192        4.83769        0.32962
H         -5.14235        3.87924        0.59541
H         -5.77284        3.41117       -0.96930
H         -4.14092        0.41654        1.15882
H         -4.59178        1.93595        1.91910
H         -5.76175        1.08294        0.91721
C         -0.99559       -4.10416        0.74068
C          0.26617       -3.60850        1.15904
C          0.50639       -2.24955        1.04463
C         -0.47337       -1.39326        0.61603
C         -1.73082       -1.85076        0.32229
C         -2.03426       -3.19988        0.40013
O         -1.20762       -5.50401        0.62756
C          1.38182       -4.51820        1.69722
H          1.47453       -1.83996        1.27540
H         -2.47148       -1.13757        0.00470
C         -3.45830       -3.66472        0.05835
C          4.39707        0.95110        0.01685
C          3.67608        0.20616       -0.94943
C          2.30573        0.09259       -0.79719
C          1.65751        0.62010        0.28813
C          2.36614        1.26036        1.27208
C          3.74053        1.40870        1.18755
O          5.76541        1.26364       -0.20135
C          4.34783       -0.45506       -2.16314
H          1.71115       -0.40371       -1.54248
H          1.82826        1.65132        2.11603
C          4.49576        2.06672        2.35371
C          2.26796       -3.75324        2.70726
C          0.79811       -5.73149        2.44359
C          2.26456       -4.98583        0.53013
C         -4.49049       -2.56487        0.39593
C         -3.54315       -3.96527       -1.44603
C         -3.84661       -4.91072        0.87446
C         -0.85517       -6.04249       -0.64070
H          2.97725       -4.42713        3.18727
H          2.84986       -2.97053        2.22269
H          1.66003       -3.29615        3.48761
H          0.13864       -5.40610        3.24747
H          0.22164       -6.36834        1.77752
H          1.58910       -6.34128        2.87946
H          2.71152       -4.13275        0.02048
H          3.07084       -5.62820        0.88326
H          1.68731       -5.54326       -0.20343
H         -4.39160       -1.70459       -0.26445
H         -5.50713       -2.93972        0.27977
H         -4.37442       -2.22680        1.42531
H         -3.29209       -3.07966       -2.02952
H         -2.85150       -4.75429       -1.73048
H         -4.54787       -4.28101       -1.72560
H         -3.74817       -4.71597        1.94186
H         -4.87747       -5.20326        0.67641
H         -3.21193       -5.75893        0.63056
H         -0.49318       -5.25350       -1.30124
H         -0.07915       -6.79741       -0.51574
H         -1.72556       -6.52150       -1.08881
C          5.97842        2.48674       -0.89488
C          5.77682       -0.91567       -1.82376
C          3.56271       -1.71235       -2.60347
C          4.37329        0.53964       -3.33344
C          4.57686        3.58240        2.11844
C          3.76280        1.81451        3.69145
C          5.90979        1.47555        2.50081
H          5.76905       -1.59070       -0.96859
H          6.23002       -1.43909       -2.66525
H          6.41770       -0.07289       -1.57730
H          3.40997       -2.38807       -1.76261
H          2.58913       -1.45602       -3.01842
H          4.10526       -2.25655       -3.37608
H          3.36177        0.84496       -3.60038
H          4.93246        1.43626       -3.07718
H          4.83513        0.09466       -4.21437
H          3.57920        4.01423        2.04251
H          5.09766        4.07723        2.93783
H          5.10715        3.81077        1.19715
H          2.81146        2.34264        3.73653
H          3.57314        0.75102        3.83521
H          4.36156        2.16392        4.53229
H          6.52040        1.68448        1.62596
H          5.86242        0.39412        2.62456
H          6.42162        1.89414        3.36701
H          6.51525        2.29243       -1.82322
H          5.02579        2.96814       -1.11934
H          6.58742        3.15216       -0.28318
