111
-148.55021547
P         -2.48839        2.17390        1.01262
P          0.04227        0.35306        0.51759
C         -1.47320        1.64540        2.42047
C         -0.33329        0.90740        2.18879
C         -3.19532        3.86070        1.31531
C         -2.43792        4.95143        0.59040
C         -1.82702        1.97105        3.71478
H         -2.73253        2.52507        3.89846
C         -1.02807        1.56700        4.77062
H         -1.30444        1.82123        5.78089
C          0.12079        0.83725        4.53265
H          0.74117        0.52102        5.35502
C          0.46695        0.50149        3.23623
H          1.34779       -0.08730        3.03212
Pd        -1.30370        1.60317       -0.89824
Cl        -2.37470        3.19348       -2.04851
Cl        -0.00648        0.85308       -2.57850
C         -4.66398        3.68915        0.88928
C         -4.05261        1.20170        0.81099
H         -1.38176        4.95311        0.86950
H         -2.49111        4.81266       -0.48899
H         -2.84973        5.93851        0.81262
H         -4.75300        3.93583       -0.17777
H         -5.30453        4.41304        1.41589
H         -4.09648        0.91217       -0.24754
C         -5.15337        2.23199        1.12860
C         -4.05418       -0.02107        1.70245
H         -3.13947        4.02351        2.39890
H         -5.45362        2.11574        2.17894
H         -6.05807        2.02029        0.53889
H         -3.22660       -0.68992        1.45617
H         -3.94442        0.26350        2.75060
H         -4.98485       -0.58513        1.60638
C         -1.21136       -3.99654       -0.01130
C         -1.26157       -3.40776        1.27837
C         -0.87121       -2.08598        1.41145
C         -0.52137       -1.33796        0.31782
C         -0.58187       -1.87203       -0.94140
C         -0.95841       -3.18703       -1.14775
O         -1.37124       -5.40002       -0.15894
C         -1.69006       -4.18979        2.52971
H         -0.82042       -1.62505        2.38158
H         -0.31675       -1.23760       -1.76812
C         -1.04737       -3.71780       -2.58662
C          4.41775        0.62808       -0.69717
C          3.86768       -0.61988       -0.30764
C          2.53286       -0.66038        0.05739
C          1.77829        0.48211        0.11205
C          2.33195        1.70512       -0.15935
C          3.66158        1.81745       -0.53275
O          5.70803        0.68110       -1.28846
C          4.67350       -1.92822       -0.32217
H          2.05362       -1.59722        0.28350
H          1.69943        2.57410       -0.09840
C          4.24386        3.21347       -0.80328
C         -2.73639       -5.26399        2.18141
C         -0.45411       -4.84128        3.16826
C         -2.34254       -3.24713        3.56681
C         -2.10671       -4.82819       -2.70626
C         -1.46713       -2.58926       -3.55662
C          0.32912       -4.24764       -3.01642
C         -0.15310       -6.13029       -0.08334
H         -2.32450       -6.01787        1.51514
H         -3.08830       -5.77373        3.07796
H         -3.59687       -4.81495        1.68646
H         -0.72474       -5.39420        4.06742
H          0.02636       -5.53302        2.48043
H          0.28037       -4.08511        3.44479
H         -1.62400       -2.54227        3.98235
H         -3.15822       -2.68170        3.11749
H         -2.75144       -3.81555        4.40185
H         -1.84037       -5.69723       -2.11003
H         -3.07665       -4.47143       -2.36143
H         -2.21401       -5.15789       -3.73933
H         -1.65890       -2.98656       -4.55299
H         -2.37683       -2.09927       -3.21064
H         -0.68973       -1.83375       -3.65887
H          0.30110       -4.62382       -4.03870
H          1.07749       -3.45696       -2.96811
H          0.66033       -5.05630       -2.36909
H         -0.21122       -6.85474        0.72885
H          0.00644       -6.67435       -1.01410
H          0.68567       -5.45505        0.09102
C          5.70105        0.54522       -2.70422
C          6.15723       -1.67057       -0.00352
C          4.14491       -2.90629        0.75255
C          4.53284       -2.59516       -1.69907
C          4.01443        3.57949       -2.27772
C          3.55021        4.27479        0.08092
C          5.74570        3.26552       -0.46895
H          6.26103       -1.16229        0.95453
H          6.71551       -2.60511        0.04584
H          6.62441       -1.04846       -0.76271
H          3.14830       -3.27289        0.51042
H          4.79383       -3.77795        0.83473
H          4.10607       -2.42483        1.72936
H          3.48657       -2.80639       -1.91877
H          4.91295       -1.95285       -2.48968
H          5.08210       -3.53559       -1.73568
H          4.40078        4.57417       -2.49837
H          4.50716        2.87276       -2.94092
H          2.95095        3.56909       -2.51556
H          4.04573        5.24076       -0.01394
H          2.50971        4.42094       -0.20511
H          3.58089        3.98459        1.13081
H          6.14189        4.27201       -0.60121
H          6.31895        2.60044       -1.10974
H          5.91932        2.96551        0.56391
H          6.29394       -0.32286       -2.99179
H          4.68008        0.42616       -3.06931
H          6.14928        1.42844       -3.15900
