171
-217.84378842
P         -1.66667        0.39324       -0.36060
P          1.62608       -0.37699       -0.28640
C         -0.89970        1.35769       -1.66593
C          0.92040       -1.34680       -1.61880
C         -0.06244        0.74362       -2.59136
C          0.60060        1.54729       -3.53912
C          0.37507        2.91377       -3.54570
C         -0.48222        3.49832       -2.63768
C         -1.11380        2.71418       -1.69287
C          1.14144       -2.70227       -1.63496
C          0.56833       -3.48690       -2.61578
C         -0.23747       -2.90343       -3.57049
C         -0.47191       -1.53786       -3.57066
C          0.13166       -0.73408       -2.58537
Cl         1.48905        0.38556        2.86738
Cl        -1.72582       -0.50581        2.73490
C         -1.33303       -0.93691       -4.62476
C          1.54641        0.96201       -4.52912
H         -0.65374        4.56214       -2.65916
H         -1.77939        3.16324       -0.97385
H          1.76790       -3.14910       -0.88020
H          0.74903       -4.54929       -2.63205
H          0.88452        3.52237       -4.27377
H         -0.69406       -3.51223       -4.33254
C         -3.96894       -3.20527       -1.83722
C         -2.93361       -3.39503       -0.93016
C         -2.23559       -2.27495       -0.49668
C         -2.55711       -1.03020       -0.97614
C         -3.57724       -0.85887       -1.87944
C         -4.31334       -1.94990       -2.32549
H         -4.52843       -4.06422       -2.15618
H         -1.44008       -2.36083        0.22322
H         -3.81048        0.13558       -2.22235
C         -4.30613        2.80975        2.43019
C         -4.86302        1.74098        1.73936
C         -4.04652        1.03747        0.86242
C         -2.73472        1.40192        0.68350
C         -2.20155        2.46023        1.37754
C         -2.97701        3.18315        2.27412
H         -4.92651        3.35016        3.12001
H         -4.42080        0.18070        0.33107
H         -1.16246        2.70731        1.23876
C          4.33510       -2.84885        2.39066
C          2.98399       -3.17122        2.32541
C          2.17727       -2.42666        1.47503
C          2.70013       -1.38859        0.74509
C          4.03263       -1.07389        0.83556
C          4.88154       -1.80231        1.65668
H          4.97526       -3.42168        3.03331
H          1.12636       -2.64699        1.39291
H          4.41502       -0.24315        0.26898
C          3.98983        3.20938       -1.68242
C          2.94639        3.40816       -0.78706
C          2.22164        2.29600       -0.37680
C          2.52363        1.05320       -0.87378
C          3.54505        0.87462       -1.77409
C          4.30794        1.95781       -2.19432
H          4.58724        4.05360       -1.97320
H          1.42404        2.38500        0.34028
H          3.74937       -0.12093       -2.13056
Pd        -0.06155       -0.01117        1.29642
C         -2.37568       -5.75531       -1.58769
C         -2.62308       -4.80241       -0.40306
C         -3.81862       -5.30328        0.42634
C         -1.36846       -4.80545        0.49103
H         -1.56215       -5.38907       -2.21258
H         -2.10887       -6.75202       -1.23672
H         -3.26120       -5.85127       -2.21447
H         -4.01355       -4.63246        1.26293
H         -4.72341       -5.35493       -0.17843
H         -3.62612       -6.29799        0.82793
H         -1.13787       -5.81503        0.83072
H         -0.50313       -4.43147       -0.05491
H         -1.51390       -4.18644        1.37600
C         -6.54308       -0.83987       -2.58884
C         -5.49689       -1.73166       -3.28109
C         -6.17061       -3.06228       -3.66906
C         -5.00819       -1.04451       -4.56869
H         -6.12544        0.13450       -2.33784
H         -7.40603       -0.67648       -3.23412
H         -6.89413       -1.30536       -1.66818
H         -5.46509       -3.72881       -4.16492
H         -6.57078       -3.57067       -2.79204
H         -6.99963       -2.88978       -4.35535
H         -5.83957       -0.85424       -5.24729
H         -4.53001       -0.08978       -4.35353
H         -4.28990       -1.67449       -5.09125
C         -7.24296        2.54127        1.70327
C         -6.32277        1.34214        1.99822
C         -6.47471        0.91715        3.47001
C         -6.75672        0.16638        1.10229
H         -7.12427        2.87221        0.67165
H         -8.28921        2.27582        1.85415
H         -7.01775        3.38536        2.35384
H         -7.49729        0.60660        3.68364
H         -5.81243        0.08224        3.69829
H         -6.22560        1.73491        4.14526
H         -7.79770       -0.09861        1.28683
H         -6.66393        0.42909        0.04946
H         -6.15240       -0.72011        1.29401
C         -3.29782        4.89283        4.13397
C         -2.34489        4.34382        3.05458
C         -2.00617        5.47889        2.07328
C         -1.06076        3.85193        3.75187
H         -2.81913        5.69015        4.70242
H         -4.20219        5.30652        3.68841
H         -3.58410        4.11041        4.83661
H         -1.33501        5.13108        1.29015
H         -2.90915        5.85437        1.59221
H         -1.52442        6.31077        2.58676
H         -0.31667        3.51565        3.03191
H         -0.60992        4.64664        4.34577
H         -1.28065        3.01625        4.41586
C          1.11194       -3.79612        3.88103
C          2.36313       -4.31316        3.14223
C          3.34735       -4.86426        4.19207
C          1.96943       -5.45218        2.18661
H          1.36401       -2.94609        4.51465
H          0.33842       -3.47445        3.18544
H          0.68282       -4.57354        4.51271
H          4.22250       -5.30843        3.71850
H          3.68077       -4.07532        4.86605
H          2.87462       -5.63899        4.79566
H          2.84609       -5.84247        1.66999
H          1.50046       -6.27381        2.72768
H          1.26838       -5.10186        1.43102
C          6.98949       -1.57320        0.32209
C          6.36650       -1.41825        1.72189
C          7.14502       -2.31006        2.70762
C          6.49125        0.04617        2.18403
H          6.49462       -0.92903       -0.40353
H          8.04744       -1.31174        0.33382
H          6.89873       -2.60119       -0.02818
H          6.74251       -2.22291        3.71665
H          7.10363       -3.35680        2.40699
H          8.19491       -2.01965        2.74502
H          7.53697        0.34200        2.26586
H          6.00756        0.72650        1.48399
H          6.02350        0.18248        3.15882
C          3.84132        5.27865        0.61497
C          2.65590        4.81546       -0.24982
C          1.37920        4.83467        0.61084
C          2.45861        5.78774       -1.42828
H          3.66136        6.27249        1.02445
H          4.00041        4.59333        1.44738
H          4.76169        5.31689        0.03312
H          1.49198        4.20671        1.49402
H          1.15660        5.84542        0.95242
H          0.52345        4.47856        0.03827
H          2.20741        6.78642       -1.07143
H          3.36041        5.86977       -2.03346
H          1.65106        5.44813       -2.07580
C          5.41833        2.78971       -4.29728
C          5.51755        1.79395       -3.12547
C          5.59602        0.36856       -3.70698
C          6.80141        2.06970       -2.32214
H          4.49752        2.63844       -4.85908
H          5.43178        3.82114       -3.94795
H          6.25473        2.66436       -4.98476
H          5.73813       -0.37141       -2.91983
H          4.68830        0.11869       -4.25570
H          6.43572        0.27769       -4.39586
H          6.80560        3.08450       -1.92544
H          6.88458        1.38278       -1.48023
H          7.68684        1.94909       -2.94601
H         -2.05139       -1.66475       -5.00279
H          1.12558        0.98953       -5.53519
H         -0.73445       -0.59169       -5.46848
H         -1.89312       -0.08510       -4.23638
H          1.78730       -0.07473       -4.29082
H          2.48242        1.52078       -4.54274
