111
-148.55679666
P         -1.68269        2.79774        0.06685
P         -0.55245       -0.11156        0.53866
C         -1.65488        2.10293        1.74380
C         -1.22405        0.80716        1.93749
C         -0.53270        4.23715       -0.08322
C          0.61226        3.90991       -1.01845
C         -2.03533        2.86959        2.82646
H         -2.33881        3.89233        2.67316
C         -2.00349        2.32690        4.09955
H         -2.30365        2.92389        4.94521
C         -1.58189        1.02447        4.28880
H         -1.55167        0.60473        5.28081
C         -1.18123        0.26461        3.20445
H         -0.81810       -0.74241        3.33683
Pd        -1.37568        0.98465       -1.32014
Cl        -1.84287        2.28473       -3.08586
Cl        -1.01060       -0.88282       -2.51843
C         -1.44737        5.37483       -0.58086
C         -3.28483        3.60994       -0.37857
H          1.29171        4.75798       -1.13155
H          1.19163        3.05772       -0.65789
H          0.23694        3.65024       -2.01028
H         -1.32508        5.47267       -1.66827
H         -1.12215        6.33883       -0.16143
H         -3.46537        3.35113       -1.43053
C         -2.94504        5.10626       -0.25646
C         -4.43602        3.14008        0.48503
H         -0.16940        4.44448        0.93185
H         -3.16692        5.43891        0.76689
H         -3.60193        5.70181       -0.90886
H         -4.26561        3.38352        1.53418
H         -5.37503        3.61271        0.18807
H         -4.56512        2.05740        0.41718
C         -0.80516       -4.64856        0.74046
C          0.29977       -3.97462        1.32103
C          0.33974       -2.59244        1.23997
C         -0.69496       -1.88693        0.68328
C         -1.81611       -2.52575        0.22374
C         -1.91841       -3.90664        0.26855
O         -0.77847       -6.06089        0.59247
C          1.46898       -4.71504        1.98878
H          1.19719       -2.04426        1.59154
H         -2.60289       -1.92720       -0.20238
C         -3.20193       -4.57628       -0.24619
C          3.71589        1.27565       -0.21398
C          3.12600        0.30437       -1.06313
C          1.82448       -0.08805       -0.80305
C          1.15177        0.37932        0.29371
C          1.75044        1.24120        1.17419
C          3.04675        1.68211        0.96922
O          4.95469        1.87242       -0.56966
C          3.84825       -0.29163       -2.28045
H          1.29360       -0.73373       -1.48128
H          1.18010        1.58508        2.01876
C          3.68694        2.62250        2.00200
C          2.55422       -4.99989        0.93915
C          2.08618       -3.85369        3.11433
C          0.99879       -6.02898        2.63876
C         -3.48281       -5.89210        0.50190
C         -4.42527       -3.65970       -0.01763
C         -3.06379       -4.84069       -1.75337
C         -0.19811       -6.50282       -0.62858
H          2.91827       -4.07122        0.50016
H          3.40285       -5.51778        1.38528
H          2.16965       -5.61819        0.13158
H          1.31936       -3.52540        3.81553
H          2.82930       -4.42228        3.67300
H          2.58977       -2.97271        2.71920
H          1.81607       -6.51925        3.16714
H          0.19874       -5.83851        3.35332
H          0.62229       -6.72758        1.89600
H         -2.70077       -6.62565        0.32309
H         -3.53832       -5.71834        1.57599
H         -4.42638       -6.33206        0.18004
H         -4.48492       -3.34547        1.02406
H         -4.38500       -2.76962       -0.64362
H         -5.35020       -4.18092       -0.26352
H         -3.96718       -5.29942       -2.15432
H         -2.88891       -3.90985       -2.29250
H         -2.22849       -5.50456       -1.96237
H          0.11030       -5.64925       -1.23365
H          0.66756       -7.13029       -0.41729
H         -0.92266       -7.09881       -1.18325
C          4.82675        3.03216       -1.38324
C          3.35922       -1.73410       -2.54741
C          3.54503        0.56624       -3.51832
C          5.36710       -0.37078       -2.04389
C          3.11799        2.35119        3.41351
C          5.20863        2.40400        2.08120
C          3.37937        4.07958        1.62441
H          3.43879       -2.34291       -1.64718
H          2.32374       -1.75413       -2.88363
H          3.95689       -2.20752       -3.32595
H          2.47245        0.60149       -3.70845
H          3.89015        1.58863       -3.38410
H          4.03197        0.15963       -4.40422
H          5.86986       -0.85092       -2.88304
H          5.80256        0.61761       -1.92176
H          5.58538       -0.94490       -1.14402
H          2.07024        2.63886        3.48850
H          3.20380        1.29552        3.66978
H          3.66056        2.92346        4.16565
H          5.69492        2.65505        1.14187
H          5.65380        3.02448        2.85858
H          5.43537        1.36254        2.30685
H          2.30419        4.25531        1.61192
H          3.76589        4.32202        0.63752
H          3.82477        4.77056        2.33963
H          3.77541        3.24845       -1.57635
H          5.28670        3.88323       -0.88132
H          5.34444        2.87513       -2.32934
