111
-148.55441052
P         -2.41951        2.33745       -0.04227
P         -0.00749        0.36210        0.51096
C         -1.75370        2.18195        1.63389
C         -0.73677        1.28549        1.87780
C         -2.59445        4.10780       -0.54481
C         -1.85137        4.35960       -1.83874
C         -2.27702        2.92974        2.66919
H         -3.05813        3.64443        2.46738
C         -1.79375        2.75893        3.95497
H         -2.20297        3.34091        4.76457
C         -0.79434        1.83759        4.20254
H         -0.42400        1.69763        5.20476
C         -0.26526        1.09727        3.16055
H          0.51197        0.37036        3.33848
Pd        -1.20985        0.91473       -1.40061
Cl        -2.71614        1.25708       -3.02985
Cl        -0.08258       -0.65272       -2.55383
C         -4.12215        4.29635       -0.65365
C         -4.18152        1.77879       -0.18591
H         -0.78811        4.12746       -1.73883
H         -2.25083        3.73235       -2.63804
H         -1.94249        5.40063       -2.15818
H         -4.34593        5.02683       -1.44468
H         -4.51232        4.73783        0.27512
H         -4.17175        0.87039       -0.80375
C         -4.85179        2.95151       -0.92962
C         -4.79190        1.49011        1.16965
H         -2.17334        4.71512        0.26793
H         -5.91033        3.01621       -0.63821
H         -4.85242        2.75422       -2.01176
H         -4.85495        2.40151        1.76592
H         -5.80449        1.09037        1.07685
H         -4.19251        0.77122        1.73248
C         -1.10659       -4.04985        0.65974
C          0.25331       -3.67161        0.80144
C          0.56784       -2.32395        0.75458
C         -0.41324       -1.37411        0.64737
C         -1.73683       -1.72750        0.61396
C         -2.12077       -3.05812        0.64881
O         -1.44788       -5.41957        0.50023
C          1.38471       -4.69922        0.96348
H          1.59183       -1.99624        0.78441
H         -2.46983       -0.94255        0.53745
C         -3.61790       -3.40282        0.61994
C          4.47991        1.08124        0.03818
C          3.78813        0.23874       -0.86783
C          2.42225        0.08660       -0.70542
C          1.75788        0.65582        0.34887
C          2.44258        1.39062        1.28252
C          3.80863        1.59305        1.17754
O          5.83000        1.44385       -0.21325
C          4.48226       -0.48703       -2.03100
H          1.84311       -0.46392       -1.42496
H          1.89021        1.82124        2.09746
C          4.53786        2.37853        2.27946
C          2.57832       -4.08462        1.72998
C          0.90964       -5.91851        1.77431
C          1.87477       -5.14236       -0.42344
C         -4.07555       -3.54541       -0.84005
C         -3.90607       -4.69718        1.40155
C         -4.45051       -2.28245        1.28265
C         -1.47786       -5.85969       -0.85186
H          2.25015       -3.64628        2.67210
H          3.32464       -4.84547        1.95738
H          3.07799       -3.31249        1.14667
H          0.11590       -6.45324        1.25852
H          1.72611       -6.62077        1.94069
H          0.52622       -5.60757        2.74553
H          2.21683       -4.28569       -1.00268
H          2.70236       -5.84623       -0.33893
H          1.08145       -5.62485       -0.98807
H         -3.90309       -2.61966       -1.38884
H         -3.53115       -4.33584       -1.35019
H         -5.13861       -3.77809       -0.89549
H         -3.41607       -5.55425        0.94690
H         -3.54776       -4.61332        2.42701
H         -4.97498       -4.90695        1.43170
H         -4.06456       -2.04456        2.27359
H         -4.44554       -1.37499        0.68159
H         -5.49148       -2.58583        1.39204
H         -1.19320       -5.04779       -1.52245
H         -0.79102       -6.69638       -0.97841
H         -2.48031       -6.20540       -1.10313
C          5.97629        2.60776       -1.01735
C          5.94373       -0.82622       -1.68612
C          3.77298       -1.82698       -2.33257
C          4.42273        0.39514       -3.28699
C          3.81978        2.21132        3.63824
C          5.97627        1.86229        2.46627
C          4.55455        3.87082        1.91581
H          6.53602        0.07251       -1.53529
H          5.99458       -1.41654       -0.77180
H          6.41228       -1.39887       -2.48614
H          4.32885       -2.40156       -3.07303
H          3.69506       -2.43126       -1.42963
H          2.77151       -1.67558       -2.73211
H          3.38897        0.60577       -3.56017
H          4.92220        1.34735       -3.12392
H          4.90181       -0.09684       -4.13302
H          2.84641        2.69973        3.64319
H          3.67715        1.15710        3.87445
H          4.40462        2.65784        4.44211
H          6.47271        2.37455        3.29006
H          5.97573        0.79432        2.68177
H          6.57409        2.02190        1.57228
H          3.53954        4.25156        1.80456
H          5.07720        4.04220        0.97795
H          5.05179        4.45554        2.68934
H          6.49336        2.35323       -1.94228
H          4.99978        3.03285       -1.25267
H          6.57564        3.34574       -0.48431
