111
-148.55246561
P         -2.53543        2.07026        0.50622
P          0.08898        0.31357        0.61658
C         -1.77800        1.69173        2.10753
C         -0.62290        0.94189        2.14826
C         -3.01726        3.85362        0.38745
C         -2.24982        4.55287       -0.71334
C         -2.34066        2.15408        3.27980
H         -3.23686        2.75142        3.24082
C         -1.74821        1.85119        4.49368
H         -2.18757        2.21002        5.41010
C         -0.59495        1.09084        4.53204
H         -0.13473        0.85394        5.47716
C         -0.03016        0.63418        3.35456
H          0.86879        0.03816        3.36578
Pd        -1.08084        1.31424       -1.12087
Cl        -2.53739        1.92483       -2.70856
Cl         0.54441        0.56749       -2.48134
C         -4.54323        3.79868        0.15570
C         -4.17354        1.26499        0.20558
H         -1.17104        4.47960       -0.55512
H         -2.47185        4.10338       -1.68237
H         -2.51178        5.61183       -0.77462
H         -4.83730        4.60502       -0.53159
H         -5.07274        4.00761        1.09677
H         -4.00443        0.46488       -0.52819
C         -5.00155        2.41857       -0.39626
C         -4.75882        0.70612        1.48449
H         -2.78132        4.30515        1.36069
H         -6.06962        2.25268       -0.19190
H         -4.90270        2.41428       -1.49189
H         -5.70790        0.19619        1.30265
H         -4.07712       -0.00268        1.95748
H         -4.94899        1.50588        2.20218
C         -1.36775       -3.89455       -0.31522
C         -0.16988       -3.42022       -0.90850
C          0.24982       -2.13737       -0.59957
C         -0.42305       -1.37498        0.31802
C         -1.52253       -1.86669        0.97196
C         -1.99500       -3.14272        0.71163
O         -1.96825       -5.09252       -0.78544
C          0.64582       -4.24288       -1.91718
H          1.09354       -1.69789       -1.10296
H         -2.01795       -1.23003        1.68349
C         -3.19582       -3.67371        1.50974
C          4.59804        0.84192        0.27557
C          4.07650       -0.29383        0.94671
C          2.70050       -0.43606        1.02565
C          1.86249        0.53232        0.53699
C          2.36294        1.68470       -0.00932
C          3.72800        1.88634       -0.12803
O          5.98536        0.91594       -0.02038
C          4.98124       -1.37417        1.56057
H          2.26079       -1.31726        1.46009
H          1.66464        2.42216       -0.36669
C          4.23513        3.20470       -0.73274
C          0.50265       -5.75354       -1.65777
C          0.17836       -3.90165       -3.34019
C          2.14979       -3.90951       -1.79348
C         -4.49642       -3.26073        0.80431
C         -3.13618       -5.20553        1.65359
C         -3.19743       -3.09055        2.94117
C         -2.88329       -4.89280       -1.85591
H         -0.52137       -6.08711       -1.80396
H          1.13552       -6.32866       -2.33320
H          0.78964       -5.99592       -0.63510
H          0.74749       -4.45956       -4.08322
H         -0.87481       -4.13755       -3.47522
H          0.30779       -2.83874       -3.54310
H          2.74609       -4.56994       -2.42259
H          2.36700       -2.88911       -2.10521
H          2.48573       -4.03361       -0.76462
H         -5.36869       -3.59733        1.36399
H         -4.55504       -2.17749        0.70590
H         -4.55405       -3.68575       -0.19502
H         -3.95114       -5.57254        2.27702
H         -3.21425       -5.69837        0.68776
H         -2.19541       -5.51179        2.10978
H         -3.97522       -3.55485        3.54703
H         -2.24062       -3.26735        3.43176
H         -3.38874       -2.01927        2.94331
H         -2.96969       -3.83053       -2.08830
H         -2.53826       -5.42957       -2.73939
H         -3.86170       -5.28478       -1.57846
C          6.34113        0.35550       -1.27815
C          6.28592       -0.75975        2.09982
C          4.27966       -2.06126        2.75403
C          5.29722       -2.44043        0.50127
C          3.26166        4.36226       -0.41288
C          5.60366        3.59710       -0.14717
C          4.33140        3.05512       -2.25884
H          6.06980        0.02703        2.82180
H          6.89980       -1.51333        2.59250
H          6.87945       -0.32421        1.29975
H          4.96400       -2.73503        3.26916
H          3.93045       -1.32330        3.47580
H          3.42728       -2.65739        2.43135
H          5.92490       -3.22889        0.91580
H          4.38060       -2.89804        0.13196
H          5.81800       -2.01010       -0.35028
H          3.68070        5.31782       -0.72739
H          2.31108        4.24538       -0.93116
H          3.06531        4.41902        0.65747
H          6.36888        2.86824       -0.40137
H          5.93059        4.56401       -0.52882
H          5.55168        3.66101        0.93919
H          5.02096        2.26117       -2.53489
H          4.67788        3.97891       -2.72132
H          3.35814        2.80871       -2.68285
H          6.77684        1.12631       -1.91345
H          7.08792       -0.42469       -1.13153
H          5.46304       -0.06676       -1.76856
