171
-217.83856489
P         -1.65145        0.75660        0.35784
P          1.45955       -0.28492       -0.42316
C         -1.00009        1.71778       -1.02674
C          0.40911       -1.08648       -1.64654
C         -0.48997        1.16332       -2.19502
C          0.07487        2.01970       -3.15904
C          0.09198        3.38500       -2.92896
C         -0.42078        3.91691       -1.76571
C         -0.95791        3.07522       -0.81130
C          0.49581       -2.44176       -1.84779
C         -0.30616       -3.05670       -2.78865
C         -1.19888       -2.30387       -3.52302
C         -1.30971       -0.93610       -3.33033
C         -0.47098       -0.30932       -2.38875
Cl         2.38331        1.33945        2.31066
Cl        -0.58599        0.80069        3.46958
C         -2.28973       -0.14856       -4.12780
C          0.67335        1.49417       -4.41676
H         -0.39569        4.98099       -1.59649
H         -1.34076        3.47479        0.11634
H          1.19856       -3.01998       -1.27306
H         -0.23631       -4.12068       -2.94568
H          0.52600        4.03321       -3.67163
H         -1.81674       -2.77904       -4.26563
C         -3.08428       -3.49735       -0.26248
C         -1.97082       -3.29149        0.54382
C         -1.51992       -1.98754        0.70580
C         -2.15969       -0.94455        0.07773
C         -3.26953       -1.16613       -0.70014
C         -3.75940       -2.45361       -0.88211
H         -3.45557       -4.49519       -0.40064
H         -0.67713       -1.78410        1.34265
H         -3.76070       -0.32106       -1.15011
C         -5.33615        2.95588        1.82125
C         -5.11304        2.82730        0.45523
C         -3.96930        2.15386        0.04666
C         -3.09028        1.64220        0.96946
C         -3.32643        1.78101        2.31285
C         -4.45874        2.44215        2.76851
H         -6.21289        3.47189        2.16476
H         -3.75397        2.03643       -1.00269
H         -2.60486        1.38093        3.00046
C          4.03313       -3.47180        1.57437
C          4.11895       -3.26705        0.20377
C          3.32257       -2.27638       -0.35706
C          2.45713       -1.54149        0.41676
C          2.39147       -1.76256        1.77208
C          3.18568       -2.72304        2.38074
H          4.64894       -4.23130        2.01804
H          3.37063       -2.07375       -1.41206
H          1.73138       -1.17178        2.37970
C          4.34531        2.46433       -2.57793
C          4.04712        1.22706       -3.13631
C          3.15035        0.40903       -2.45845
C          2.59491        0.81473       -1.26947
C          2.90256        2.03917       -0.73515
C          3.77742        2.89721       -1.38544
H          5.05350        3.09532       -3.08058
H          2.86747       -0.54810       -2.86079
H          2.47746        2.31727        0.21256
Pd         0.40740        0.70824        1.45288
C         -1.47522       -4.17189        2.82806
C         -1.29878       -4.43358        1.32142
C          0.19884       -4.49507        0.97426
C         -1.92401       -5.80162        0.98641
H         -1.02601       -3.22304        3.11753
H         -2.53243       -4.13057        3.08931
H         -1.01200       -4.96084        3.42012
H          0.69272       -3.55002        1.18886
H          0.70298       -5.27187        1.54881
H          0.33890       -4.71897       -0.08235
H         -2.97904       -5.82969        1.25806
H         -1.83302       -6.02363       -0.07679
H         -1.42277       -6.59933        1.53456
C         -5.68625       -1.43949       -2.19932
C         -5.03263       -2.73958       -1.69199
C         -6.05145       -3.47023       -0.79643
C         -4.68312       -3.62132       -2.90306
H         -5.01476       -0.89070       -2.85826
H         -6.59451       -1.65591       -2.76156
H         -5.95927       -0.79178       -1.36665
H         -5.66762       -4.43213       -0.45903
H         -6.28439       -2.87412        0.08574
H         -6.98136       -3.65454       -1.33416
H         -3.98115       -3.11059       -3.55999
H         -4.22781       -4.56042       -2.59058
H         -5.57462       -3.85770       -3.48374
C         -6.57194        2.26817       -1.50714
C         -6.06164        3.40630       -0.60384
C         -5.29735        4.43831       -1.45418
C         -7.27696        4.10287        0.03759
H         -5.75084        1.77970       -2.03048
H         -7.09168        1.51320       -0.91762
H         -7.26553        2.64671       -2.25774
H         -5.94791        4.88223       -2.20748
H         -4.90864        5.24083       -0.82761
H         -4.45432        3.97978       -1.97004
H         -6.96463        4.93360        0.67011
H         -7.94119        4.50375       -0.72800
H         -7.85486        3.40449        0.64268
C         -4.82175        4.12307        4.59415
C         -4.75416        2.62057        4.26476
C         -3.65971        1.97856        5.14044
C         -6.10027        1.95277        4.60058
H         -3.88264        4.61455        4.34062
H         -5.61813        4.61564        4.03752
H         -5.00998        4.28160        5.65587
H         -3.58264        0.90826        4.95051
H         -2.68761        2.43290        4.95022
H         -3.88357        2.11042        6.19884
H         -6.07551        0.89189        4.35215
H         -6.32773        2.04577        5.66239
H         -6.91853        2.40773        4.04368
C          4.62065       -5.60179       -0.54890
C          5.06307       -4.13039       -0.64454
C          6.50303       -3.98239       -0.11943
C          5.04181       -3.70786       -2.12716
H          3.59577       -5.71856       -0.90116
H          5.26147       -6.24253       -1.15435
H          4.66356       -5.96131        0.47863
H          6.81904       -2.93990       -0.15378
H          6.58761       -4.32411        0.91137
H          7.19934       -4.56621       -0.72121
H          4.04528       -3.82011       -2.55409
H          5.35363       -2.66996       -2.24227
H          5.72241       -4.32363       -2.71495
C          3.59838       -1.56042        4.55749
C          3.13516       -2.87792        3.90764
C          4.04948       -4.01743        4.39596
C          1.69356       -3.18841        4.34815
H          3.58902       -1.63590        5.64453
H          4.61184       -1.31208        4.24343
H          2.95033       -0.73153        4.27459
H          3.75515       -4.97067        3.95706
H          5.09053       -3.82364        4.13841
H          3.99284       -4.12096        5.47950
H          1.63613       -3.32240        5.42813
H          1.01466       -2.38031        4.07930
H          1.33766       -4.10341        3.87621
C          4.12998       -0.52258       -4.98362
C          4.76210        0.76357       -4.41463
C          6.23673        0.48016       -4.07773
C          4.68233        1.85769       -5.49716
H          3.07133       -0.37785       -5.19692
H          4.61850       -0.81484       -5.91305
H          4.23112       -1.35459       -4.28750
H          6.78083        0.13847       -4.95807
H          6.73146        1.37565       -3.70267
H          6.31532       -0.29037       -3.31093
H          5.15859        1.52513       -6.41940
H          3.64649        2.10382       -5.72667
H          5.18311        2.77176       -5.18167
C          5.06731        5.07932       -1.62212
C          4.09173        4.26081       -0.75539
C          4.72837        4.04324        0.63001
C          2.78398        5.06007       -0.60452
H          4.65245        5.26112       -2.61344
H          5.26954        6.04840       -1.16607
H          6.02052        4.56311       -1.73448
H          4.05160        3.51166        1.29790
H          5.64244        3.45605        0.54535
H          4.97934        4.99473        1.09826
H          2.31109        5.20808       -1.57503
H          2.07390        4.54038        0.03781
H          2.97309        6.04034       -0.16764
H         -2.64247        0.72068       -3.57033
H          0.06306        1.76082       -5.28083
H         -3.16138       -0.75100       -4.38681
H         -1.84230        0.20459       -5.05759
H          0.77114        0.40838       -4.39344
H          1.66914        1.91107       -4.56886
