111
-148.54664998
P         -2.33077        2.32093        0.66603
P          0.08166        0.23656        0.45517
C         -1.35615        1.90592        2.13457
C         -0.32768        0.99396        2.04133
C         -2.50481        4.15561        0.50827
C         -1.95433        4.64065       -0.81459
C         -1.64523        2.49601        3.34823
H         -2.43635        3.22539        3.41024
C         -0.91603        2.15235        4.47351
H         -1.14258        2.61169        5.42181
C          0.09654        1.21691        4.38327
H          0.65884        0.94187        5.26041
C          0.38957        0.63408        3.16342
H          1.16927       -0.10713        3.07901
Pd        -1.55473        0.96325       -1.03257
Cl        -2.89009        2.03093       -2.47658
Cl        -0.77232       -0.62441       -2.42323
C         -4.02042        4.38703        0.68540
C         -4.11474        1.82677        0.76185
H         -2.02057        5.72772       -0.90292
H         -0.90752        4.35296       -0.93899
H         -2.51490        4.20920       -1.64505
H         -4.33630        5.23527        0.06089
H         -4.23489        4.68814        1.72131
H         -4.25963        1.02921        0.02016
C         -4.84666        3.11649        0.33853
C         -4.48742        1.33421        2.14405
H         -1.93733        4.59457        1.34030
H         -5.83595        3.15310        0.81773
H         -5.04078        3.09502       -0.74409
H         -4.38313        2.13319        2.87951
H         -5.52358        0.98959        2.18070
H         -3.84471        0.50954        2.46049
C         -0.89518       -4.19713        0.73895
C         -1.90866       -3.22012        0.91327
C         -1.54717       -1.88437        0.85183
C         -0.26337       -1.51481        0.54529
C          0.69297       -2.45285        0.25912
C          0.39963       -3.80540        0.31130
O         -1.16470       -5.56059        1.03119
C         -3.37835       -3.58363        1.17499
H         -2.26812       -1.10775        1.04470
H          1.67793       -2.11157       -0.00613
C          1.48348       -4.82373       -0.07521
C          4.29280        1.22159       -1.01070
C          3.38326        0.53422       -1.85318
C          2.11179        0.27885       -1.37047
C          1.75009        0.61288       -0.09201
C          2.65816        1.19221        0.75617
C          3.94965        1.47305        0.34222
O          5.53015        1.68806       -1.52943
C          3.73995        0.10071       -3.28387
H          1.36512       -0.17167       -1.99927
H          2.34012        1.43836        1.75275
C          4.94702        2.06394        1.35184
C         -3.62289       -3.65416        2.68964
C         -4.31599       -2.51401        0.56915
C         -3.74565       -4.92489        0.51455
C          2.42705       -4.23151       -1.14595
C          2.31069       -5.18285        1.16800
C          0.86052       -6.09409       -0.68243
C         -0.92345       -5.91772        2.38625
H         -4.66235       -3.89907        2.90640
H         -2.99494       -4.41070        3.15469
H         -3.39548       -2.69848        3.16152
H         -4.23856       -1.56472        1.09590
H         -4.08071       -2.34293       -0.48105
H         -5.35688       -2.83025        0.63249
H         -3.18211       -5.74781        0.94701
H         -4.80465       -5.14789        0.64201
H         -3.53038       -4.89759       -0.55312
H          1.85627       -3.85651       -1.99500
H          3.02923       -3.41637       -0.74749
H          3.11820       -4.98878       -1.51530
H          1.68667       -5.62508        1.94120
H          3.09723       -5.89552        0.92122
H          2.78005       -4.29377        1.58852
H          0.23090       -5.84208       -1.53512
H          1.63152       -6.78531       -1.02187
H          0.24454       -6.61955        0.04315
H         -0.18125       -6.71478        2.42735
H         -0.56220       -5.05558        2.94833
H         -1.84481       -6.28534        2.83764
C          5.47366        3.00088       -2.07357
C          5.23383       -0.25189       -3.40189
C          2.94845       -1.16464       -3.68501
C          3.38097        1.23084       -4.26042
C          4.61930        1.58835        2.78592
C          6.38389        1.60337        1.04570
C          4.86265        3.59728        1.31431
H          5.50359       -1.02352       -2.68155
H          5.47179       -0.62073       -4.39929
H          5.86290        0.61430       -3.21335
H          1.88172       -0.96489       -3.77327
H          3.28387       -1.54081       -4.65116
H          3.09083       -1.95629       -2.95097
H          3.92845        2.14130       -4.02899
H          3.61429        0.94896       -5.28680
H          2.31715        1.46132       -4.20715
H          5.39792        1.89716        3.48307
H          3.68256        2.01022        3.14719
H          4.54567        0.50188        2.82676
H          7.08166        1.96961        1.79835
H          6.44271        0.51558        1.02922
H          6.72107        1.96996        0.07941
H          5.54989        4.04371        2.03256
H          3.85491        3.93357        1.55714
H          5.11112        3.98228        0.32835
H          4.46898        3.41279       -1.97062
H          6.18524        3.64260       -1.55425
H          5.74855        2.97265       -3.12779
