111
-148.55317219
P         -2.65233        2.07049        0.13707
P          0.06753        0.46064        0.42243
C         -1.83543        1.95652        1.75225
C         -0.62988        1.29746        1.86047
C         -3.47547        3.71242       -0.09607
C         -2.68434        4.61033       -1.02192
C         -2.41593        2.51632        2.87249
H         -3.36900        3.01208        2.78828
C         -1.77970        2.42271        4.09832
H         -2.23207        2.86057        4.97311
C         -0.56849        1.76634        4.20276
H         -0.07470        1.69064        5.15757
C          0.00545        1.19655        3.08066
H          0.94085        0.66311        3.14851
Pd        -1.10774        1.29039       -1.39206
Cl        -2.48768        2.03747       -2.99556
Cl         0.45937        0.45791       -2.76969
C         -4.87296        3.32071       -0.61043
C         -4.10877        0.94259       -0.04418
H         -3.17380        5.57805       -1.15395
H         -1.67736        4.78825       -0.63710
H         -2.58157        4.15777       -2.00872
H         -4.85376        3.31117       -1.70899
H         -5.61326        4.08682       -0.33376
H         -3.98793        0.44454       -1.01560
C         -5.29976        1.91840       -0.08877
C         -4.16270       -0.07282        1.07664
H         -3.55256        4.16529        0.90043
H         -5.71534        2.01554        0.92362
H         -6.11296        1.50206       -0.70254
H         -5.03671       -0.72204        0.98666
H         -3.27191       -0.70451        1.07971
H         -4.21565        0.42386        2.04723
C         -1.23832       -3.90859        0.42531
C         -0.90118       -3.26913       -0.79436
C         -0.48713       -1.95063       -0.74724
C         -0.45939       -1.25351        0.43125
C         -0.88234       -1.83622        1.59695
C         -1.31663       -3.15101        1.62224
O         -1.46782       -5.31002        0.45408
C         -0.95499       -3.98322       -2.15375
H         -0.17925       -1.43887       -1.64153
H         -0.87146       -1.24408        2.49464
C         -1.84394       -3.74078        2.93992
C          4.60330        0.80036        0.12800
C          3.85754        1.85897        0.71169
C          2.48252        1.71755        0.80966
C          1.84610        0.61413        0.30261
C          2.55010       -0.35046       -0.36929
C          3.92367       -0.26528       -0.51940
O          6.01532        0.76460        0.25965
C          4.48931        3.15882        1.23758
H          1.88912        2.47216        1.29733
H          2.01064       -1.18196       -0.78874
C          4.60906       -1.30967       -1.41684
C          0.40403       -4.64221       -2.43490
C         -2.07533       -5.03836       -2.18129
C         -1.25715       -2.97571       -3.28746
C         -0.68062       -4.37914        3.71357
C         -2.47422       -2.63843        3.82187
C         -2.94336       -4.78552        2.67567
C         -0.29774       -6.08488        0.68377
H          0.65247       -5.37582       -1.67180
H          0.40058       -5.14793       -3.40010
H          1.19832       -3.89629       -2.44758
H         -1.89259       -5.83047       -1.45954
H         -3.03597       -4.58359       -1.94174
H         -2.15448       -5.50047       -3.16497
H         -2.14820       -2.39109       -3.06011
H         -0.42846       -2.28790       -3.44864
H         -1.42866       -3.49413       -4.23042
H          0.08934       -3.63917        3.93082
H         -1.02371       -4.79745        4.65951
H         -0.21808       -5.17927        3.14096
H         -2.95276       -3.07263        4.69941
H         -1.72738       -1.93274        4.18258
H         -3.23216       -2.08445        3.26913
H         -3.36354       -5.15736        3.60983
H         -3.75212       -4.35098        2.08900
H         -2.55493       -5.63985        2.12678
H         -0.43308       -6.69418        1.57724
H         -0.12936       -6.75308       -0.16055
H          0.56954       -5.43611        0.81305
C          6.44022        0.06011        1.41430
C          3.66681        4.36926        0.74293
C          4.48514        3.14139        2.77500
C          5.92821        3.35658        0.72957
C          3.82905       -1.42488       -2.74579
C          6.05327       -0.91915       -1.77482
C          4.60604       -2.67492       -0.70942
H          2.66136        4.37427        1.16031
H          4.14193        5.30611        1.03290
H          3.58162        4.35763       -0.34330
H          5.06977        2.30798        3.15995
H          4.90812        4.06201        3.17621
H          3.47082        3.04182        3.16045
H          5.96296        3.29889       -0.35778
H          6.32228        4.32649        1.03210
H          6.59401        2.59327        1.12543
H          3.75306       -0.45248       -3.23140
H          4.32856       -2.10713       -3.43303
H          2.81892       -1.80010       -2.59206
H          6.08393        0.07814       -2.21231
H          6.69084       -0.91611       -0.89395
H          6.48362       -1.61866       -2.49109
H          5.07031       -3.43782       -1.33382
H          3.58921       -2.99741       -0.48709
H          5.15377       -2.63093        0.23027
H          7.52987        0.04398        1.44500
H          6.06246        0.55003        2.31031
H          6.06482       -0.96184        1.38802
