171
-217.84351096
P         -1.59825        0.41739       -0.28245
P          1.64403       -0.35253       -0.41790
C         -0.92015        1.42316       -1.60371
C          0.87610       -1.27627       -1.74995
C         -0.13784        0.85124       -2.60075
C          0.46022        1.69683       -3.55427
C          0.21801        3.05976       -3.50074
C         -0.58392        3.60244       -2.51934
C         -1.14368        2.77796       -1.56374
C          1.08482       -2.63171       -1.82186
C          0.46786       -3.37712       -2.80702
C         -0.36622       -2.75483       -3.71149
C         -0.58657       -1.38846       -3.65833
C          0.05771       -0.62461       -2.66581
Cl         1.75356        0.56927        2.72767
Cl        -1.40047       -0.41869        2.90796
C         -1.48851       -0.75564       -4.65953
C          1.33560        1.15245       -4.62713
H         -0.76788        4.66406       -2.49242
H         -1.75804        3.19316       -0.78118
H          1.73689       -3.10931       -1.10881
H          0.63683       -4.43984       -2.86724
H          0.66896        3.69921       -4.24081
H         -0.85802       -3.33299       -4.47558
C         -3.88400       -3.26642       -1.55478
C         -2.90658       -3.38809       -0.57425
C         -2.19124       -2.24994       -0.22723
C         -2.44570       -1.05280       -0.84741
C         -3.41496       -0.94640       -1.81450
C         -4.16127       -2.05914       -2.18499
H         -4.46556       -4.12759       -1.82470
H         -1.45033       -2.28744        0.55328
H         -3.59730        0.01804       -2.25751
C         -4.43921        2.75918        2.36994
C         -4.94467        1.75085        1.55803
C         -4.05114        1.06571        0.74757
C         -2.71555        1.38138        0.74823
C         -2.23261        2.38203        1.55471
C         -3.08947        3.09069        2.38778
H         -5.10589        3.29587        3.01835
H         -4.40041        0.26476        0.11981
H         -1.17667        2.59012        1.54517
C          4.21003       -2.88077        2.34187
C          2.87376       -3.22028        2.17050
C          2.12377       -2.46380        1.27988
C          2.68482       -1.40121        0.61499
C          4.00164       -1.06731        0.81386
C          4.79536       -1.80830        1.68066
H          4.81427       -3.45338        3.01982
H          1.08311       -2.68710        1.11931
H          4.39816       -0.20695        0.30492
C          4.02888        3.20872       -1.85279
C          2.99452        3.41333       -0.94762
C          2.27226        2.30485       -0.52429
C          2.57153        1.05693       -1.00974
C          3.59149        0.87075       -1.91008
C          4.35081        1.94952       -2.34678
H          4.60462        4.05879       -2.16673
H          1.47317        2.40259        0.19016
H          3.80478       -0.12589       -2.25962
Pd         0.09144        0.06504        1.29283
C         -3.53946       -5.84359       -0.32825
C         -2.61921       -4.70682        0.15562
C         -2.84338       -4.50723        1.66669
C         -1.15996       -5.11633       -0.10518
H         -4.58739       -5.60245       -0.15081
H         -3.40266       -6.03286       -1.39280
H         -3.31972       -6.77018        0.20203
H         -2.64412       -5.42697        2.21630
H         -2.19167       -3.73201        2.06672
H         -3.87262       -4.20981        1.86624
H         -0.90918       -6.03321        0.42785
H         -0.99377       -5.28699       -1.16825
H         -0.47205       -4.33723        0.21804
C         -6.63912       -2.26476       -2.45806
C         -5.31715       -1.97265       -3.19198
C         -5.10867       -3.00805       -4.31328
C         -5.41426       -0.57285       -3.82999
H         -6.79658       -1.55109       -1.64952
H         -7.48739       -2.19684       -3.13894
H         -6.63702       -3.26429       -2.02461
H         -5.10751       -4.02442       -3.92176
H         -5.90275       -2.94122       -5.05680
H         -4.15871       -2.84527       -4.82057
H         -4.49352       -0.31175       -4.35005
H         -6.22596       -0.53482       -4.55636
H         -5.61286        0.18956       -3.07711
C         -7.26183        2.21117        2.50654
C         -6.42742        1.35431        1.53578
C         -6.56104       -0.12426        1.94751
C         -6.98162        1.54561        0.11158
H         -8.31112        1.91765        2.47709
H         -6.91472        2.09133        3.53265
H         -7.20737        3.26738        2.24345
H         -7.60634       -0.43216        1.96393
H         -6.03246       -0.77849        1.25496
H         -6.14488       -0.28538        2.94172
H         -8.03795        1.28153        0.06474
H         -6.87776        2.58297       -0.20588
H         -6.45050        0.92203       -0.60649
C         -3.31469        5.49949        3.05991
C         -2.57985        4.17688        3.34532
C         -1.06670        4.41591        3.17802
C         -2.84538        3.73271        4.79511
H         -2.95156        6.29510        3.71030
H         -3.15886        5.81049        2.02702
H         -4.38736        5.40165        3.22212
H         -0.49850        3.51217        3.39787
H         -0.83486        4.73417        2.16236
H         -0.71973        5.19545        3.85602
H         -2.47620        4.47297        5.50463
H         -3.91057        3.59606        4.97795
H         -2.34652        2.78620        5.00287
C          2.06837       -5.57323        1.92906
C          2.22347       -4.39871        2.90933
C          0.83939       -3.97998        3.44633
C          3.07854       -4.85695        4.10723
H          1.48195       -5.28020        1.05977
H          3.04208       -5.90876        1.57254
H          1.57139       -6.41849        2.40481
H          0.92273       -3.09575        4.07793
H          0.14858       -3.74913        2.63798
H          0.39287       -4.77817        4.03892
H          4.03695       -5.25905        3.78031
H          3.26571       -4.02882        4.79064
H          2.57086       -5.64282        4.66644
C          6.72653       -0.25866        1.09704
C          6.26185       -1.44874        1.95807
C          7.15723       -2.65938        1.63525
C          6.41425       -1.06744        3.44175
H          6.13989        0.63497        1.30943
H          7.77167       -0.02115        1.29493
H          6.63507       -0.49037        0.03682
H          7.03812       -2.95876        0.59409
H          8.20808       -2.42167        1.79987
H          6.90884       -3.51607        2.26042
H          7.44199       -0.78496        3.66918
H          5.76865       -0.22499        3.68932
H          6.14369       -1.89771        4.09305
C          3.92279        5.31464        0.39055
C          2.70725        4.82412       -0.41616
C          1.47030        4.84093        0.50273
C          2.44811        5.77731       -1.59766
H          3.74598        6.31043        0.79665
H          4.12831        4.64149        1.22271
H          4.81641        5.36022       -0.23101
H          1.62561        4.21377        1.38037
H          1.26202        5.85167        0.85326
H          0.58646        4.48461       -0.02528
H          2.20394        6.77887       -1.24405
H          3.32124        5.85752       -2.24383
H          1.61587        5.42159       -2.20362
C          6.23697        3.03041       -3.67562
C          5.53446        1.71192       -3.29766
C          5.03958        1.03997       -4.59125
C          6.55855        0.79603       -2.60355
H          5.54770        3.71354       -4.17174
H          6.64268        3.52634       -2.79402
H          7.06589        2.84444       -4.35851
H          4.53219        0.09898       -4.38241
H          4.34511        1.68996       -5.12141
H          5.87234        0.82696       -5.26133
H          6.91215        1.24923       -1.67775
H          6.12047       -0.17152       -2.36111
H          7.42263        0.61968       -3.24390
H         -0.98455       -0.63972       -5.61993
H          0.76975        0.97758       -5.54290
H         -1.82250        0.22936       -4.33080
H         -2.37586       -1.36744       -4.82211
H          1.79385        0.20965       -4.32507
H          2.13843        1.85214       -4.86075
