75
-122.81722933
P          1.85139       -0.57637        0.02616
C          3.18338       -1.30363       -0.94105
C          4.45155       -1.30990       -0.40586
C          5.49354       -1.88579       -1.11025
C          5.25498       -2.46083       -2.34252
C          3.97818       -2.46694       -2.86785
C          2.93877       -1.89087       -2.16099
H          1.93762       -1.89301       -2.56040
H          3.79076       -2.91840       -3.82824
H          6.06581       -2.90866       -2.89359
H          6.48818       -1.88781       -0.69559
H          4.61841       -0.87466        0.56719
C          1.72506       -1.55260        1.53068
C          1.59179       -0.94700        2.75899
C          1.58514       -1.71424        3.90888
C          1.70944       -3.08647        3.82012
C          1.83580       -3.69196        2.58561
C          1.84571       -2.92037        1.43735
H          1.96151       -3.37691        0.46691
H          1.92894       -4.76319        2.51557
H          1.70020       -3.68649        4.71536
H          1.47687       -1.24152        4.87115
H          1.48222        0.12321        2.81223
C          2.21113        1.14282        0.42087
C          3.36339        1.79547        0.04958
C          3.52481        3.14822        0.31316
C          2.49452        3.83297        0.95698
C          1.32820        3.19521        1.31720
C          1.18062        1.82479        1.05019
O         -0.00335        1.14121        1.37225
C         -1.19916        1.81862        1.08290
C         -1.35250        3.18428        1.37070
C         -2.53955        3.81190        1.06416
C         -3.58818        3.12162        0.45760
C         -3.41030        1.78104        0.14527
C         -2.23639        1.13878        0.46238
P         -1.86094       -0.55384       -0.02170
C         -1.68942       -1.60277        1.42691
C         -1.73866       -1.06517        2.69247
C         -1.69305       -1.89785        3.79520
C         -1.59862       -3.26443        3.62104
C         -1.54554       -3.79925        2.34901
C         -1.59367       -2.96362        1.24754
H         -1.57096       -3.36596        0.24684
H         -1.46833       -4.86542        2.21330
H         -1.55896       -3.91444        4.47980
H         -1.72670       -1.47964        4.78772
H         -1.80729        0.00362        2.81153
C         -3.20150       -1.24879       -1.00275
C         -4.44375       -1.35749       -0.41979
C         -5.49438       -1.90445       -1.13440
C         -5.29029       -2.34623       -2.42642
C         -4.03952       -2.24657       -3.00258
C         -2.99154       -1.69940       -2.28563
H         -2.01172       -1.61501       -2.72650
H         -3.87941       -2.59234       -4.01060
H         -6.10786       -2.77158       -2.98528
H         -6.46876       -1.98727       -0.68169
H         -4.58333       -1.02176        0.59607
Pd         0.02503       -0.07070       -1.38181
Cl        -1.57999        1.01484       -2.56396
Cl         1.52177        0.75767       -2.85083
H         -4.18514        1.24615       -0.37490
C         -4.84583        3.82352        0.08786
H         -5.05177        4.64877        0.77070
H         -5.69890        3.14454        0.12124
H         -4.77817        4.22984       -0.92206
H         -2.64917        4.85896        1.28517
S         -0.00083        4.06459        2.10778
H          2.60223        4.88212        1.16854
C          4.77960        3.84399       -0.07876
H          4.13556        1.25850       -0.47205
H          5.59892        3.56956        0.58691
H          5.06890        3.57979       -1.09680
H          4.66193        4.92754       -0.03818
