171
-217.83386779
P         -1.49459        0.17851       -0.20590
P          1.72005       -0.70214        0.21131
C         -0.68038        0.67854       -1.73972
C          0.87972       -1.94941       -0.79474
C          0.03996       -0.27818       -2.44410
C          0.69708        0.09225       -3.63342
C          0.56889        1.39118       -4.09598
C         -0.14855        2.32963       -3.38506
C         -0.76269        1.97018       -2.20190
C          0.95861       -3.23011       -0.30017
C          0.29971       -4.26485       -0.93514
C         -0.46345       -4.00067       -2.05201
C         -0.57381       -2.71521       -2.55453
C          0.12608       -1.66728       -1.92808
Cl         1.18783       -0.41972        3.42362
Cl        -1.86293       -1.08981        2.93003
C         -1.44186       -2.47546       -3.73940
C          1.51510       -0.88914       -4.39815
H         -0.22143        3.34232       -3.74667
H         -1.28516        2.71233       -1.62511
H          1.53463       -3.41595        0.59444
H          0.37296       -5.26925       -0.55127
H          1.04257        1.66498       -5.02324
H         -0.99397       -4.79919       -2.54291
C         -4.67716       -2.87333       -1.25686
C         -3.83965       -3.13468       -0.17838
C         -2.87462       -2.18945        0.13872
C         -2.74993       -1.03988       -0.59857
C         -3.58396       -0.79798       -1.66214
C         -4.57117       -1.71081       -2.01246
H         -5.43829       -3.58686       -1.50671
H         -2.23146       -2.33966        0.98712
H         -3.46346        0.11172       -2.22517
C         -3.67775        3.76010        1.58512
C         -3.81043        3.48728        0.23040
C         -3.15879        2.36903       -0.27519
C         -2.36383        1.58905        0.53082
C         -2.26293        1.87327        1.87243
C         -2.91597        2.96398        2.42836
H         -4.19314        4.60815        1.99712
H         -3.27153        2.09959       -1.31023
H         -1.69619        1.21904        2.50533
C          5.75102       -2.47154        1.30468
C          5.27061       -2.60840        0.00688
C          4.02935       -2.05900       -0.28758
C          3.30326       -1.40964        0.68032
C          3.79199       -1.28814        1.95495
C          5.02886       -1.81577        2.29558
H          6.70790       -2.88975        1.55066
H          3.61703       -2.14830       -1.27924
H          3.18871       -0.79666        2.69607
C          2.71315        3.41034       -1.41230
C          1.73401        3.31683       -0.43157
C          1.42145        2.05306        0.05519
C          2.05027        0.93803       -0.45030
C          3.01691        1.05237       -1.41912
C          3.37380        2.29896       -1.91792
H          2.98400        4.38245       -1.78113
H          0.68391        1.93306        0.82796
H          3.50272        0.15890       -1.77059
Pd        -0.13794       -0.51072        1.61287
C         -2.63169       -5.15391        0.69311
C         -3.96927       -4.39169        0.69356
C         -5.06866       -5.33740        0.17374
C         -4.32233       -3.97039        2.13227
H         -2.35808       -5.44710       -0.31989
H         -1.82589       -4.54086        1.09494
H         -2.69648       -6.05698        1.29964
H         -4.85754       -5.66040       -0.84557
H         -5.13626       -6.22995        0.79566
H         -6.04421       -4.85183        0.18882
H         -5.25676       -3.41006        2.15075
H         -4.43661       -4.84103        2.77760
H         -3.54600       -3.33738        2.56051
C         -6.47514       -2.55447       -3.47906
C         -5.54216       -1.37208       -3.15384
C         -4.75495       -1.01558       -4.42952
C         -6.40133       -0.16782       -2.72803
H         -7.13233       -2.30984       -4.31351
H         -5.90239       -3.43929       -3.75661
H         -7.10754       -2.80377       -2.62732
H         -4.09973       -0.16018       -4.27071
H         -4.14198       -1.85558       -4.75348
H         -5.43255       -0.76429       -5.24535
H         -6.96463       -0.39684       -1.82361
H         -5.77971        0.70235       -2.52149
H         -7.11071        0.10368       -3.50958
C         -6.10509        4.40614       -0.18476
C         -4.64140        4.42147       -0.65996
C         -4.59973        3.98683       -2.13835
C         -4.07364        5.85021       -0.56217
H         -6.51401        3.39697       -0.23269
H         -6.19008        4.75283        0.84453
H         -6.72442        5.05177       -0.80718
H         -5.02233        2.99119       -2.26744
H         -5.17771        4.67138       -2.75904
H         -3.57766        3.98108       -2.51695
H         -4.62632        6.53460       -1.20556
H         -4.13096        6.23220        0.45631
H         -3.02762        5.86950       -0.86809
C         -1.87883        2.32117        4.66366
C         -2.84348        3.27567        3.93050
C         -4.24731        3.11772        4.54117
C         -2.34596        4.71800        4.13969
H         -2.21514        1.28724        4.59016
H         -0.87241        2.38625        4.25052
H         -1.81790        2.57086        5.72266
H         -4.61947        2.10452        4.39048
H         -4.23224        3.31666        5.61259
H         -4.95622        3.80613        4.08233
H         -1.35110        4.84852        3.71577
H         -3.00991        5.44163        3.66874
H         -2.29118        4.95984        5.20098
C          6.30687       -2.38330       -2.26634
C          6.04257       -3.34781       -1.09527
C          5.20035       -4.53992       -1.58726
C          7.39577       -3.88079       -0.58678
H          6.87948       -1.51898       -1.93061
H          6.87186       -2.87565       -3.05763
H          5.37499       -2.02181       -2.69956
H          4.25045       -4.20818       -2.00520
H          5.72797       -5.09810       -2.36044
H          4.98323       -5.22254       -0.76591
H          7.25706       -4.58729        0.23137
H          7.93033       -4.39962       -1.38245
H          8.03191       -3.06724       -0.23855
C          4.54566       -2.36048        4.69389
C          5.53453       -1.66737        3.73775
C          5.63054       -0.17098        4.08940
C          6.92500       -2.30389        3.92508
H          4.88519       -2.28759        5.72685
H          3.55616       -1.90849        4.63614
H          4.44533       -3.41655        4.44448
H          6.00495       -0.03160        5.10334
H          6.30628        0.34246        3.40571
H          4.65723        0.31401        4.02466
H          7.26921       -2.18477        4.95238
H          6.90045       -3.37162        3.70809
H          7.66225       -1.83446        3.27400
C          0.49029        5.41602       -1.05568
C          1.08169        4.59820        0.10889
C          2.14887        5.43310        0.83873
C         -0.05524        4.28541        1.09649
H          0.00810        6.32180       -0.68834
H          1.25965        5.71556       -1.76585
H         -0.25688        4.83612       -1.59557
H          1.71752        6.34625        1.24852
H          2.58395        4.86587        1.66140
H          2.95616        5.71691        0.16438
H         -0.52336        5.20368        1.45022
H         -0.82741        3.68759        0.61647
H          0.31309        3.74347        1.96710
C          5.11084        1.12755       -3.36081
C          4.49030        2.47866       -2.95634
C          5.60085        3.36103       -2.35628
C          3.91813        3.15192       -4.21625
H          4.36322        0.46669       -3.79791
H          5.89934        1.26854       -4.09991
H          5.55226        0.62867       -2.49852
H          6.42292        3.48653       -3.06076
H          5.22622        4.35178       -2.10186
H          6.00045        2.91075       -1.44775
H          3.13777        2.53581       -4.65985
H          3.48640        4.12501       -3.98526
H          4.69516        3.30041       -4.96591
H         -1.63397       -1.41195       -3.88625
H          2.35169       -0.39837       -4.89764
H         -2.40552       -2.97133       -3.61351
H         -0.98028       -2.86540       -4.64765
H          0.91542       -1.38531       -5.16221
H          1.92854       -1.65562       -3.74070
