111
-148.55406428
P         -1.39915        2.62348        1.17759
P         -0.30925       -0.28009        0.54627
C         -0.92574        1.51747        2.53844
C         -0.51876        0.22916        2.26245
C         -0.25268        4.07053        1.08033
C          0.56563        4.01950       -0.19221
C         -0.94531        1.96613        3.84356
H         -1.22710        2.98544        4.05115
C         -0.58153        1.11297        4.87119
H         -0.60074        1.46185        5.89077
C         -0.18831       -0.18202        4.59191
H          0.09986       -0.84405        5.39181
C         -0.14691       -0.62256        3.28114
H          0.18948       -1.61912        3.04128
Pd        -1.56179        1.23164       -0.66350
Cl        -2.58035        2.96763       -1.65822
Cl        -1.62516       -0.21447       -2.37784
C         -1.20031        5.28298        1.17636
C         -3.00675        3.49796        1.46417
H          1.23231        4.88120       -0.27367
H          1.17484        3.11452       -0.23802
H         -0.08505        4.01814       -1.06898
H         -1.39482        5.65718        0.16190
H         -0.70828        6.11269        1.70600
H         -3.50923        3.52348        0.48832
C         -2.55135        4.91552        1.85476
C         -3.88137        2.79915        2.48358
H          0.39154        4.00937        1.96732
H         -2.44228        4.96600        2.94680
H         -3.33088        5.65057        1.60225
H         -4.83549        3.31580        2.60997
H         -4.09066        1.76937        2.18500
H         -3.39813        2.76431        3.46024
C         -0.96408       -4.73680       -0.10989
C         -2.05876       -3.90322        0.23460
C         -1.81618       -2.55635        0.45250
C         -0.56584       -2.02685        0.26870
C          0.47123       -2.80725       -0.17162
C          0.29645       -4.16037       -0.41003
O         -1.12210       -6.14833       -0.11914
C         -3.48902       -4.44357        0.38900
H         -2.60496       -1.89711        0.77292
H          1.42835       -2.34077       -0.32708
C          1.46993       -4.97848       -0.97189
C          3.61968        1.44246       -0.97851
C          3.37128        1.38670        0.41707
C          2.17420        0.84152        0.84940
C          1.28215        0.30166       -0.03910
C          1.55818        0.27094       -1.38005
C          2.73726        0.79496       -1.88073
O          4.72583        2.18306       -1.47410
C          4.34763        1.95567        1.45792
H          1.90878        0.85700        1.89173
H          0.80368       -0.12232       -2.03903
C          3.00142        0.71170       -3.39154
C         -4.52459       -3.34981        0.04213
C         -3.74258       -5.62047       -0.57085
C         -3.71164       -4.88877        1.84209
C          2.35716       -4.09892       -1.88191
C          2.32475       -5.50621        0.18995
C          0.96869       -6.14960       -1.83670
C         -0.83515       -6.77078        1.12678
H         -5.53253       -3.76358        0.02158
H         -4.52415       -2.54633        0.77708
H         -4.31927       -2.91925       -0.93766
H         -4.77655       -5.95928       -0.51145
H         -3.54026       -5.32594       -1.60007
H         -3.10477       -6.46886       -0.33526
H         -4.72469       -5.26414        1.98459
H         -3.01855       -5.67827        2.12265
H         -3.56040       -4.05550        2.52793
H          3.11685       -4.70037       -2.38060
H          1.75649       -3.61381       -2.65070
H          2.87988       -3.32890       -1.31656
H          3.17121       -6.08466       -0.17931
H          2.71380       -4.68202        0.78740
H          1.74197       -6.14584        0.84872
H          0.32173       -5.78705       -2.63482
H          1.80131       -6.68564       -2.29155
H          0.40090       -6.86459       -1.24671
H         -1.70881       -7.32690        1.46640
H         -0.01082       -7.47307        1.00442
H         -0.56715       -6.02228        1.87352
C          4.43419        3.54719       -1.75355
C          4.22898        1.18750        2.79424
C          5.80643        1.81355        0.98755
C          4.01238        3.43322        1.71326
C          4.50921        0.63561       -3.69170
C          2.36213       -0.56391       -3.98578
C          2.38067        1.93685       -4.08028
H          4.33449        0.11466        2.63519
H          5.00657        1.50071        3.49056
H          3.27235        1.37007        3.28167
H          6.03785        0.77245        0.76501
H          5.99264        2.39551        0.08854
H          6.50052        2.15938        1.75314
H          4.68683        3.86456        2.45247
H          4.09325        4.02013        0.80159
H          2.99343        3.53794        2.08504
H          5.02498        1.53712       -3.37159
H          4.96105       -0.20911       -3.17273
H          4.69037        0.51418       -4.75937
H          2.69244       -1.44873       -3.44324
H          1.27449       -0.52594       -3.95199
H          2.64499       -0.68757       -5.03084
H          1.30726        1.97872       -3.89614
H          2.53720        1.90028       -5.15797
H          2.81556        2.86150       -3.70850
H          4.63022        3.75611       -2.80508
H          3.39038        3.76792       -1.52868
H          5.07864        4.18967       -1.15383
