45
-71.81661824
C          2.32675        0.93371        2.52257
P          1.53300        0.76821        0.88888
P         -1.03596        0.30860       -0.86704
C         -0.47946       -0.00036       -2.57736
Cl         1.32375       -2.18563        2.11655
H          3.04165        1.75139        2.50991
H         -1.02734        0.63569       -3.26670
Cl        -1.21888       -2.74920        0.01500
C          0.50198        2.18320        0.45303
C         -0.60954        1.97793       -0.33454
C         -1.39670        3.04345       -0.71950
C         -1.06376        4.32372       -0.31325
C          0.05466        4.53099        0.47110
C          0.84231        3.45911        0.85306
H         -2.26551        2.86547       -1.33282
H         -1.67655        5.15867       -0.61077
H          0.31620        5.52848        0.78391
H          1.72349        3.61051        1.45496
Pd         0.15193       -1.06428        0.56947
H         -0.64657       -1.04085       -2.84086
H          2.84767        0.01413        2.77343
H          0.58124        0.21656       -2.66474
C         -5.45230       -0.50751       -0.14070
C         -4.88071       -0.89220       -1.33749
C         -3.54087       -0.64283       -1.57449
C         -2.78449       -0.00861       -0.61547
C         -3.34812        0.37183        0.58134
C         -4.68822        0.12396        0.82054
H         -6.49563       -0.70405        0.04499
H         -5.47592       -1.39073       -2.08483
H         -3.08215       -0.94828       -2.50073
H         -2.73553        0.85926        1.32384
H         -5.13241        0.42032        1.75654
C          4.46336       -0.16102       -2.45534
C          3.74869        1.02102       -2.47991
C          2.86683        1.31437       -1.45554
C          2.71315        0.42695       -0.41560
C          3.41327       -0.75704       -0.39118
C          4.29623       -1.05267       -1.41359
H          5.14995       -0.39046       -3.25383
H          3.87553        1.71295       -3.29625
H          2.29480        2.22809       -1.46365
H          3.23921       -1.45285        0.41454
H          4.84571       -1.97952       -1.39997
H          1.57360        1.12973        3.28036
