111
-148.55371526
P         -1.70073        2.74941        0.45374
P         -0.41102       -0.13362        0.53985
C         -1.30671        1.98282        2.05185
C         -0.81591        0.69477        2.08902
C         -0.62448        4.22232        0.15304
C          0.27683        3.98687       -1.04082
C         -1.46807        2.68967        3.22640
H         -1.81571        3.70908        3.19005
C         -1.16087        2.09370        4.43745
H         -1.29049        2.64427        5.35490
C         -0.68254        0.79774        4.47176
H         -0.43761        0.33642        5.41429
C         -0.49914        0.09927        3.29190
H         -0.09240       -0.89970        3.29698
Pd        -1.59191        1.02198       -1.08001
Cl        -2.97836        2.16464       -2.41518
Cl        -1.27255       -0.76478       -2.40821
C         -1.63362        5.37337       -0.03513
C         -3.36756        3.55677        0.43348
H          0.93104        3.12648       -0.88479
H         -0.31529        3.78646       -1.93614
H          0.90531        4.85684       -1.24554
H         -1.75973        5.55679       -1.11094
H         -1.22728        6.30978        0.37590
H         -3.77584        3.37776       -0.56951
C         -3.01830        5.04712        0.59420
C         -4.30201        2.99701        1.48490
H         -0.03924        4.36379        1.07103
H         -3.00715        5.29719        1.66389
H         -3.80835        5.67447        0.15368
H         -5.28640        3.46774        1.43362
H         -4.43482        1.91971        1.36193
H         -3.91229        3.16545        2.48911
C         -0.59657       -4.67682        0.77113
C         -1.71098       -3.95210        0.27617
C         -1.64016       -2.56871        0.25988
C         -0.49355       -1.91710        0.63017
C          0.62370       -2.61634        1.00644
C          0.61748       -4.00067        1.05426
O         -0.70448       -6.07276        1.01040
C         -2.98269       -4.64180       -0.24286
H         -2.48023       -1.97641       -0.05994
H          1.50982       -2.05935        1.25869
C          1.91138       -4.74447        1.42082
C          3.64369        1.37982       -0.87793
C          2.96045        0.38585       -1.62448
C          1.72640       -0.04328       -1.16735
C          1.21524        0.40975        0.01899
C          1.91588        1.29584        0.79427
C          3.15123        1.77432        0.39252
O          4.79612        2.00984       -1.41860
C          3.50809       -0.19765       -2.93562
H          1.12014       -0.71028       -1.75504
H          1.47359        1.62655        1.71710
C          3.91736        2.73476        1.31552
C         -3.65173       -3.78811       -1.34485
C         -2.65417       -6.00730       -0.87366
C         -3.97678       -4.81836        0.91451
C          1.99126       -6.10284        0.70056
C          3.15161       -3.93095        0.98498
C          1.96775       -4.94776        2.94224
C         -1.16838       -6.40371        2.31311
H         -4.47188       -4.33231       -1.81242
H         -4.06842       -2.86556       -0.94376
H         -2.93435       -3.52922       -2.12323
H         -3.54480       -6.46548       -1.30294
H         -1.91462       -5.89527       -1.66582
H         -2.25159       -6.69823       -0.13716
H         -4.23941       -3.85340        1.34741
H         -4.89440       -5.29560        0.57147
H         -3.55460       -5.43224        1.70655
H          1.90546       -5.97078       -0.37751
H          2.93798       -6.60127        0.90732
H          1.19293       -6.76838        1.01958
H          3.26077       -3.01741        1.56758
H          4.06365       -4.51051        1.12597
H          3.08674       -3.66084       -0.06857
H          2.88164       -5.46490        3.23353
H          1.94207       -3.98928        3.46020
H          1.12284       -5.53574        3.29258
H         -1.34939       -5.49862        2.89425
H         -2.09127       -6.97846        2.23773
H         -0.42501       -7.01882        2.81992
C          4.51234        3.16037       -2.20526
C          5.04704       -0.22975       -2.93155
C          3.02934       -1.65597       -3.12184
C          2.99517        0.64104       -4.11609
C          3.56830        2.46371        2.79690
C          5.43790        2.54466        1.16917
C          3.53006        4.18341        0.98188
H          5.43153       -0.70204       -3.83519
H          5.46562        0.77207       -2.88085
H          5.41638       -0.78936       -2.07279
H          3.26649       -2.25624       -2.24410
H          1.95556       -1.71037       -3.29398
H          3.51444       -2.11553       -3.98263
H          3.32272        1.67492       -4.03760
H          3.35704        0.24369       -5.06396
H          1.90567        0.64037       -4.14346
H          3.71145        1.41184        3.04296
H          4.20463        3.05170        3.45791
H          2.53763        2.73264        3.02419
H          5.71558        1.50934        1.36405
H          5.77428        2.79704        0.16659
H          5.98145        3.17934        1.86860
H          2.46198        4.33987        1.12822
H          3.76174        4.42651       -0.05209
H          4.06337        4.88692        1.62066
H          4.87180        3.00695       -3.22258
H          3.43912        3.35385       -2.22463
H          5.03042        4.02404       -1.78873
