111
-148.55437480
P         -2.43363        2.17745        1.07326
P          0.04765        0.28682        0.54369
C         -1.40982        1.62529        2.46396
C         -0.29951        0.84732        2.21969
C         -2.98743        3.92715        1.32194
C         -2.20649        4.89771        0.46307
C         -1.73192        1.97530        3.75983
H         -2.61223        2.56723        3.94946
C         -0.93211        1.55072        4.80696
H         -1.18327        1.82307        5.81908
C          0.18571        0.77766        4.55741
H          0.80689        0.44561        5.37291
C          0.50121        0.42120        3.25850
H          1.35929       -0.19739        3.04580
Pd        -1.33321        1.51443       -0.85101
Cl        -2.66734        2.88898       -2.01135
Cl        -0.09511        0.77289       -2.57681
C         -4.49449        3.85231        1.01687
C         -4.07388        1.32666        0.97056
H         -2.52993        5.92777        0.62979
H         -1.13571        4.83951        0.67239
H         -2.34458        4.67902       -0.59597
H         -4.65010        4.07654       -0.04744
H         -5.03768        4.63548        1.56742
H         -4.19988        1.03635       -0.08117
C         -5.06958        2.44275        1.33882
C         -4.11637        0.11182        1.87188
H         -2.82914        4.14975        2.38487
H         -5.29485        2.37582        2.41205
H         -6.03009        2.28394        0.82553
H         -3.35014       -0.61417        1.59030
H         -3.93446        0.39301        2.91081
H         -5.08795       -0.38581        1.82739
C         -1.10895       -4.09081        0.03154
C         -1.26491       -3.47323        1.30154
C         -0.89883       -2.14394        1.43283
C         -0.47857       -1.41545        0.35055
C         -0.46206       -1.97143       -0.90086
C         -0.80601       -3.29568       -1.10529
O         -1.16981       -5.50320       -0.08605
C         -1.82108       -4.19216        2.54221
H         -0.92576       -1.66548        2.39626
H         -0.17193       -1.34730       -1.72803
C         -0.84314       -3.80983       -2.55382
C          4.35687        0.77187       -0.82984
C          3.87546       -0.51024       -0.46039
C          2.55977       -0.61971       -0.04331
C          1.76194        0.48747        0.08003
C          2.25310        1.74094       -0.17222
C          3.55991        1.92209       -0.59541
O          5.61819        0.89879       -1.47033
C          4.73507       -1.78083       -0.55106
H          2.12955       -1.58279        0.17028
H          1.58838        2.57993       -0.05621
C          4.07035        3.34989       -0.84401
C         -0.67760       -4.45316        3.53644
C         -2.88564       -3.30027        3.21865
C         -2.50902       -5.52229        2.18906
C         -1.56132       -5.16455       -2.67708
C         -1.61892       -2.80440       -3.43398
C          0.59435       -3.93837       -3.08484
C          0.09169       -6.12252        0.10331
H         -0.20111       -3.52016        3.83600
H         -1.04820       -4.94432        4.43582
H          0.08742       -5.09059        3.09712
H         -3.67834       -3.04816        2.51493
H         -3.34040       -3.81327        4.06568
H         -2.45855       -2.37167        3.59373
H         -1.79575       -6.24298        1.79618
H         -2.97779       -5.96734        3.06641
H         -3.27845       -5.36812        1.43335
H         -1.01454       -5.94908       -2.15943
H         -2.55932       -5.11109       -2.24347
H         -1.65883       -5.46410       -3.72030
H         -2.61678       -2.63175       -3.03195
H         -1.11104       -1.84353       -3.49646
H         -1.72630       -3.18048       -4.45098
H          1.17224       -4.64305       -2.48968
H          0.59865       -4.28706       -4.11716
H          1.10711       -2.97754       -3.05372
H         -0.01422       -7.20024       -0.02248
H          0.80757       -5.74330       -0.62436
H          0.46493       -5.91210        1.10428
C          5.55812        0.80890       -2.88849
C          4.29092       -2.81683        0.50726
C          4.57032       -2.40710       -1.94423
C          6.21765       -1.46866       -0.27905
C          3.37092        4.35196        0.10269
C          5.58161        3.45728       -0.57122
C          3.76201        3.75092       -2.29479
H          3.30200       -3.21811        0.28982
H          4.97889       -3.66160        0.53383
H          4.27010       -2.37093        1.50134
H          5.16117       -3.31814       -2.03551
H          3.52724       -2.66126       -2.13030
H          4.88729       -1.72105       -2.72581
H          6.81694       -2.37880       -0.28281
H          6.62807       -0.80197       -1.03322
H          6.33658       -0.98807        0.69144
H          2.31393        4.46183       -0.13515
H          3.45839        4.03060        1.14023
H          3.82096        5.34100        0.01957
H          6.15434        2.83726       -1.25613
H          5.92884        4.48359       -0.68793
H          5.81209        3.13435        0.44344
H          4.25441        3.08676       -3.00084
H          4.09657        4.76763       -2.49899
H          2.69055        3.70205       -2.48788
H          5.94745        1.72593       -3.33037
H          6.17647       -0.02137       -3.22920
H          4.52906        0.65530       -3.21608
