105
-153.06708185
Cl         0.04935        1.93960        3.06335
Pd        -0.50500        1.27027        0.98191
P         -1.10764        0.49389       -1.15304
N         -0.71764       -1.01274       -1.97768
C          0.19464       -2.00817       -1.63104
C          0.33012       -2.48891       -0.30412
C          1.28843       -3.48594       -0.02661
C          1.40753       -4.01048        1.38487
C          2.23260       -5.29952        1.52282
C          3.50229       -5.23172        0.66957
C          3.14657       -5.04292       -0.81239
C          2.08791       -3.99631       -1.05332
C          1.89907       -3.54434       -2.35323
C          0.96880       -2.58025       -2.63971
H          0.84711       -2.22774       -3.64909
H          2.50685       -3.95542       -3.14153
H          4.04308       -4.77827       -1.38773
H          4.12123       -4.39039        1.00597
H          2.48136       -5.49386        2.57569
H          1.85269       -3.22493        2.00620
C         -0.66388       -2.12703        0.73482
C         -0.23396       -1.54326        1.95831
C         -1.16169       -1.41326        2.99633
C         -2.46186       -1.81615        2.83630
C         -2.90400       -2.37588        1.64370
C         -4.34145       -2.83188        1.56462
C         -4.80966       -3.21212        0.15063
C         -3.73021       -4.01090       -0.58413
C         -2.43548       -3.19343       -0.70026
C         -2.00395       -2.53471        0.58767
H         -1.62141       -3.83200       -1.06526
H         -4.08479       -4.32689       -1.57547
H         -5.03441       -2.30240       -0.41944
H         -4.98428       -2.04518        1.97904
H         -3.16145       -1.70129        3.64695
H         -0.84561       -0.96141        3.92016
N          1.06126       -1.03276        2.13262
P          1.59574        0.19192        0.98275
C          2.61236       -0.36427       -0.37321
C          2.41477        0.19383       -1.61127
C          3.23744       -0.16546       -2.66293
C          4.26498       -1.08023       -2.47271
C          4.46861       -1.60465       -1.20265
C          3.64327       -1.24467       -0.15242
H          3.79599       -1.64400        0.83765
H          5.27516       -2.29931       -1.04183
C          5.15366       -1.46635       -3.60286
H          3.08229        0.26030       -3.63940
H          1.61220        0.89832       -1.74800
C          2.52740        1.51292        1.76521
C          3.26107        1.26709        2.90070
C          3.97846        2.29341        3.48820
C          3.97278        3.56703        2.93477
C          3.22725        3.79279        1.78546
C          2.51133        2.76554        1.19804
H          1.93312        2.93678        0.30309
H          3.20672        4.77965        1.35560
C          4.71678        4.68102        3.58510
H          4.54580        2.11104        4.38483
H          3.27389        0.27517        3.32244
H          1.22139       -0.60122        3.03368
H         -0.98205       -0.91350       -2.94968
C         -0.60364        1.87977       -2.18509
C         -0.84639        3.16459       -1.76162
C         -0.44576        4.23731       -2.53466
C          0.20629        4.03134       -3.74240
C          0.42724        2.72803       -4.16602
C          0.02290        1.65786       -3.38938
H          0.21001        0.64855       -3.71522
H          0.91985        2.55647       -5.10789
C          0.62054        5.18536       -4.58747
H         -0.63888        5.24348       -2.20380
H         -1.35712        3.32147       -0.82605
C         -2.90395        0.53248       -1.10492
C         -3.57299        0.82061       -2.27093
C         -4.95632        0.84883       -2.28350
C         -5.67830        0.58666       -1.12725
C         -4.98454        0.30677        0.04128
C         -3.60288        0.26523        0.04666
H         -3.06297        0.04130        0.95228
H         -5.53418        0.12570        0.94898
C         -7.16610        0.64365       -1.12705
H         -5.48338        1.08067       -3.19316
H         -3.00969        1.02663       -3.16770
Cl        -2.31583        2.60826        1.06417
H          2.79862       -5.99396       -1.23297
H          1.62607       -6.15557        1.20152
H          4.11975       -6.12952        0.81467
H          0.39910       -4.16698        1.78826
H         -3.52659       -4.93816       -0.03398
H         -2.56242       -2.41389       -1.46026
H         -4.46692       -3.69089        2.23463
H         -5.75320       -3.77473        0.18851
H          6.00619       -0.78964       -3.67445
H          5.53700       -2.47951       -3.47321
H          4.61754       -1.43539       -4.55250
H          5.08327        5.39404        2.84525
H          4.07374        5.21975        4.28234
H          5.57849        4.30864        4.14083
H          0.86547        6.05397       -3.97458
H          1.50186        4.94159       -5.18239
H         -0.17943        5.47102       -5.27186
H         -7.51526        1.63015       -0.81921
H         -7.56945        0.43810       -2.11957
H         -7.58674       -0.09220       -0.44013
