111
-148.55246367
P         -2.63948        1.96942        0.24999
P          0.14977        0.47507        0.50125
C         -1.79990        1.87081        1.85903
C         -0.56657        1.26266        1.95349
C         -3.65680        3.51329        0.13535
C         -3.30443        4.32384       -1.09213
C         -2.39396        2.39251        2.99094
H         -3.36680        2.85038        2.92001
C         -1.74535        2.31081        4.21119
H         -2.20944        2.71876        5.09428
C         -0.50694        1.70468        4.29987
H         -0.00370        1.63832        5.25041
C          0.08228        1.17323        3.16689
H          1.03997        0.67923        3.22010
Pd        -1.01596        1.37338       -1.28830
Cl        -2.45715        1.90966       -2.91509
Cl         0.71101        0.72289       -2.57383
C         -5.10295        2.97403        0.13614
C         -3.95198        0.68420        0.02654
H         -3.52586        3.76138       -1.99994
H         -3.87510        5.25449       -1.13647
H         -2.24163        4.57606       -1.11096
H         -5.74265        3.63973       -0.46155
H         -5.51427        3.00644        1.15578
H         -3.61715        0.02434       -0.78589
C         -5.17792        1.51665       -0.40134
C         -4.15665       -0.10714        1.29980
H         -3.45007        4.09696        1.04228
H         -6.09735        1.02203       -0.05543
H         -5.24719        1.53871       -1.49900
H         -3.23458       -0.60427        1.60758
H         -4.46413        0.54918        2.11606
H         -4.92805       -0.87143        1.17866
C         -1.46817       -3.77041        0.17070
C         -0.89312       -3.13585       -0.96197
C         -0.42041       -1.84476       -0.81413
C         -0.42999       -1.21765        0.40308
C         -0.86044       -1.87432        1.52580
C         -1.34800       -3.16875        1.45237
O         -2.23470       -4.95276        0.00756
C         -0.76020       -3.78939       -2.34689
H         -0.04795       -1.29788       -1.66339
H         -0.82587       -1.35664        2.46889
C         -1.71671       -3.87467        2.76815
C          4.67837        0.72995        0.12301
C          4.02240       -0.51744       -0.03346
C          2.64411       -0.55028        0.08938
C          1.93357        0.57237        0.42404
C          2.57178        1.75808        0.67713
C          3.95030        1.86013        0.57707
O          6.05171        0.85805       -0.21546
C          4.76657       -1.81654       -0.37889
H          2.10001       -1.45936       -0.09732
H          1.97189        2.61153        0.94282
C          4.62923        3.19462        0.92314
C          0.67408       -3.57209       -2.87901
C         -1.00034       -5.30806       -2.30420
C         -1.76099       -3.13597       -3.31484
C         -0.57641       -3.67698        3.79114
C         -3.01054       -3.26510        3.33308
C         -1.90026       -5.39154        2.58745
C         -3.60418       -4.68466       -0.24406
H          0.81592       -4.08082       -3.83207
H          0.89187       -2.51753       -3.03923
H          1.40825       -3.96476       -2.17625
H         -2.02700       -5.53716       -2.02863
H         -0.81032       -5.76325       -3.27592
H         -0.34505       -5.78017       -1.57304
H         -1.58283       -2.06400       -3.39520
H         -1.67527       -3.56557       -4.31249
H         -2.78535       -3.27705       -2.97516
H         -0.45264       -2.62985        4.06228
H         -0.77827       -4.22824        4.70920
H          0.36974       -4.03419        3.38541
H         -3.29174       -3.74777        4.26868
H         -2.88646       -2.20091        3.53083
H         -3.83736       -3.38007        2.63467
H         -2.75600       -5.61232        1.95385
H         -1.01869       -5.83276        2.12374
H         -2.06391       -5.88455        3.54542
H         -4.03621       -4.13201        0.58874
H         -3.70807       -4.09000       -1.15033
H         -4.13841       -5.62694       -0.36744
C          6.27947        1.20714       -1.57521
C          4.03466       -3.03895        0.22188
C          4.81799       -1.97771       -1.90590
C          6.19062       -1.81671        0.20550
C          6.04411        2.96855        1.48662
C          4.69499        4.07280       -0.33553
C          3.82833        3.94769        2.00968
H          3.07163       -3.20997       -0.25652
H          4.62293       -3.94639        0.08751
H          3.86719       -2.90365        1.29008
H          5.34373       -1.14782       -2.37214
H          5.32755       -2.89959       -2.18492
H          3.81188       -2.00766       -2.32367
H          6.79925       -1.02854       -0.23019
H          6.16284       -1.65945        1.28321
H          6.69284       -2.76459        0.01366
H          6.69800        2.51360        0.74681
H          6.49899        3.91014        1.79314
H          6.01108        2.30955        2.35357
H          5.15915        5.03424       -0.11731
H          5.27205        3.59209       -1.12174
H          3.69540        4.26089       -0.72662
H          2.86435        4.28981        1.63630
H          4.37099        4.83000        2.34831
H          3.65437        3.30906        2.87536
H          6.86117        0.42494       -2.06254
H          5.33080        1.33390       -2.09851
H          6.84886        2.13521       -1.62370
