72
-98.10346746
Fe         0.02140        2.79886        0.01992
P          1.90259       -0.05428       -0.06672
P         -1.85534       -0.04402        0.05032
C          1.45762        1.55370        0.68444
C          0.44870        1.74983        1.71045
C          0.37333        3.17246        1.99490
C          1.36764        3.85245        1.18358
C          2.03507        2.85043        0.36974
C         -1.41674        1.58775       -0.67391
C         -1.99000        2.87541       -0.31098
C         -1.31671        3.90337       -1.08669
C         -0.35386        3.25565       -1.95784
C         -0.41254        1.82888       -1.69440
C          3.31830       -0.74730        0.91141
C          4.51075        0.01382        0.30868
C          2.83718        0.19942       -1.65637
C          4.31299        0.31561       -1.20374
C         -3.19385       -0.77652       -1.01323
C         -4.37816        0.13488       -0.64782
C         -2.96377        0.29349        1.51131
C         -4.33959        0.55931        0.85127
H         -0.15377        0.96439        2.16798
H         -0.28907        3.64345        2.72511
H          1.57565        4.92471        1.18355
H          2.83566        3.03167       -0.35047
H         -2.77264        3.04281        0.43130
H          0.18565        1.06354       -2.18498
Cl         1.57263       -3.08834       -0.18449
Cl        -1.60271       -2.99337        0.36529
Pd         0.03017       -1.46348        0.05210
H          3.38443       -1.81471        0.67161
C          3.18004       -0.55083        2.41729
H          2.48328        1.13962       -2.09568
C          2.63440       -0.95541       -2.63822
H          5.44649       -0.53998        0.48225
H          4.62729        0.95841        0.85983
H          4.71379        1.30965       -1.45177
H          4.91676       -0.38777       -1.79377
H         -1.52426        4.97513       -1.04602
H          0.30134        3.75103       -2.67795
H          4.13774       -0.79422        2.89806
H          3.42491       -0.91927       -3.40097
H         -3.38299       -1.79263       -0.64784
C         -2.84973       -0.81090       -2.50461
H         -2.57628        1.19089        2.00835
C         -3.02786       -0.86601        2.50276
H         -5.33271       -0.35381       -0.89801
H         -4.33135        1.02807       -1.28818
H         -4.62249        1.61689        0.95737
H         -5.10859        0.00486        1.40725
H         -3.77408       -0.70634       -3.08969
H         -3.32424       -1.77297        1.95982
C          2.06777       -1.38064        3.03072
H          2.21221       -2.44482        2.83517
H          2.00072       -1.24722        4.11284
H          1.10442       -1.10401        2.60712
C          1.27925       -0.96552       -3.32298
H          1.13107       -0.06720       -3.92535
H          1.16243       -1.82563       -3.98631
H          0.47207       -1.00664       -2.59402
C         -2.12886       -2.08593       -2.91841
H         -1.24355       -2.26102       -2.30792
H         -2.77084       -2.95942       -2.78935
H         -1.81401       -2.06134       -3.96403
C         -1.73614       -1.10984        3.26070
H         -1.83652       -1.91420        3.99307
H         -0.93713       -1.39604        2.57975
H         -1.41255       -0.21583        3.79681
H          3.01729        0.51543        2.62202
H          2.79725       -1.89866       -2.10038
H         -2.25204        0.07529       -2.75320
H         -3.84224       -0.67824        3.21644
