58
-89.86543896
P          1.71556        0.35560        0.75921
C          2.98065        1.58902        0.41014
C          2.70226        2.67670       -0.38621
C          3.67717        3.62954       -0.61944
C          4.92447        3.49346       -0.04349
C          5.19625        2.41107        0.76930
C          4.21849        1.45982        1.00027
H          4.41342        0.62015        1.64880
H          1.72482        2.77492       -0.82994
C          2.25204       -1.31265        0.34515
C          3.52601       -1.56945       -0.10805
C          3.89467       -2.86230       -0.43286
C          2.98188       -3.89133       -0.30924
C          1.70004       -3.62875        0.13048
C          1.33776       -2.33491        0.45554
H          0.32779       -2.11127        0.75144
H          4.22359       -0.75760       -0.22550
C          1.38593        0.48611        2.56355
C          0.15573       -0.25025        3.06092
C         -1.15392        0.37818        2.60979
P         -1.64591       -0.01488        0.88132
C         -1.98791       -1.77021        0.67504
C         -2.07867       -2.61965        1.75503
C         -2.30220       -3.96925        1.55069
C         -2.43825       -4.46023        0.26722
C         -2.35814       -3.60447       -0.81287
C         -2.13417       -2.25683       -0.60395
H         -2.07061       -1.57205       -1.43387
H         -1.97779       -2.23041        2.75461
C         -3.11428        0.96059        0.54662
C         -4.33776        0.34530        0.41334
C         -5.46242        1.10421        0.14419
C         -5.35111        2.47419        0.00932
C         -4.12033        3.08649        0.14245
C         -2.99707        2.32495        0.41237
H         -2.02716        2.78707        0.51052
H         -4.40645       -0.72582        0.51414
Pd        -0.05364        0.44975       -0.74896
Cl         1.48744        0.72420       -2.35781
Cl        -1.79916        0.58257       -2.16440
H         -1.99027        0.05277        3.23339
H         -1.10811        1.46530        2.69704
H          0.19697       -1.30011        2.74705
H          0.18011       -0.28174        4.16145
H          2.29053        0.12180        3.05663
H          1.31131        1.55101        2.79276
H          3.46271        4.47556       -1.25156
H          6.16701        2.30785        1.22569
H          4.89192       -3.06460       -0.78770
H          0.97829       -4.42498        0.20978
H         -2.36948       -4.63712        2.39378
H         -2.46729       -3.98409       -1.81543
H         -6.42207        0.62602        0.03621
H         -4.03288        4.15485        0.03208
H          5.68553        4.23461       -0.22578
H          3.26747       -4.89851       -0.56561
H         -2.61070       -5.51230        0.10867
H         -6.22609        3.06646       -0.20363
