59
-75.79868328
Cl         1.60965        0.78108        2.29608
P          1.63768       -0.11229       -0.82131
P         -1.55374       -0.21925       -0.78923
C          0.63911        0.23972       -2.33499
H          0.37444        1.30038       -2.33295
H          1.26185        0.05587       -3.21621
C         -0.59475       -0.61817       -2.31564
H         -0.32918       -1.67709       -2.30369
H         -1.23522       -0.44868       -3.18684
C          2.51889       -1.72480       -1.07647
H          2.17148       -2.07494       -2.05759
C          3.10351        1.00377       -0.67799
H          3.31534        1.08974        0.39484
C         -2.91920       -1.39635       -0.34871
H         -2.73188       -1.71226        0.68562
C         -2.54188        1.31346       -1.10764
H         -2.16493        1.76009       -2.03618
C          4.01053       -1.33630       -1.15766
H          4.51721       -1.63542       -0.23270
H          4.51028       -1.90912       -1.95314
C          4.20748        0.18971       -1.37524
H          4.18508        0.41561       -2.45063
H          5.20008        0.51384       -1.02615
C         -4.18739       -0.51824       -0.42756
H         -5.02340       -1.11124       -0.82543
H         -4.49721       -0.22033        0.58496
C         -3.96647        0.75491       -1.28868
H         -4.70945        1.52485       -1.03662
H         -4.13872        0.51212       -2.34796
C          2.16816       -2.75029        0.00174
H          2.58527       -3.72707       -0.28066
H          1.07916       -2.89090        0.00541
C          2.86262        2.38537       -1.27305
H          3.81265        2.93746       -1.29318
H          2.57302        2.27450       -2.32598
C         -2.95829       -2.62474       -1.25471
H         -3.94471       -3.10222       -1.17243
H         -2.88428       -2.29662       -2.29962
C         -2.39895        2.30242        0.04456
H         -2.81337        1.84574        0.95312
H         -1.33259        2.45039        0.26092
C          2.63129       -2.38637        1.40634
H          3.71779       -2.40894        1.49923
H          2.23460       -3.07427        2.15671
H          2.30913       -1.38354        1.68375
C          1.81302        3.18204       -0.51356
H          2.10302        3.32196        0.52947
H          0.85198        2.66713       -0.50901
H          1.65284        4.17147       -0.94776
C         -1.87544       -3.64207       -0.92700
H         -1.89879       -4.49952       -1.60341
H         -1.98828       -4.02326        0.08986
H         -0.88093       -3.20251       -0.98920
C         -3.05817        3.64802       -0.22240
H         -2.64736        4.11586       -1.11909
H         -4.13354        3.54704       -0.37582
H         -2.91296        4.34446        0.60663
Cl        -1.58856        0.05499        2.38933
Pd         0.04733        0.06536        0.85354
