111
-148.55093131
P         -2.53518        2.11507        0.86480
P          0.11421        0.40813        0.52079
C         -1.46602        1.79587        2.29901
C         -0.29573        1.08753        2.13527
C         -3.41852        3.73081        1.07580
C         -3.25772        4.62130       -0.13602
C         -1.82236        2.24690        3.55449
H         -2.74756        2.78319        3.68622
C         -0.99860        1.99531        4.63822
H         -1.27706        2.34842        5.61772
C          0.17757        1.29085        4.46732
H          0.81781        1.09340        5.31127
C          0.52817        0.83100        3.21078
H          1.43500        0.26602        3.06023
Pd        -1.26287        1.50519       -0.97509
Cl        -2.80910        2.43909       -2.29854
Cl         0.08541        0.84339       -2.64881
C         -4.87457        3.29476        1.34122
C         -3.97750        0.95836        0.77624
H         -3.71165        4.15943       -1.01367
H         -3.74043        5.59046        0.01032
H         -2.20388        4.79753       -0.36349
H         -5.56299        4.06215        0.95803
H         -5.05992        3.24596        2.42432
H         -3.86900        0.38600       -0.15547
C         -5.18773        1.91190        0.70372
C         -3.99284        0.02711        1.96867
H         -2.98162        4.21657        1.95852
H         -6.05322        1.44501        1.19605
H         -5.48558        2.05589       -0.34534
H         -3.07397       -0.56090        2.02085
H         -4.07401        0.59307        2.89858
H         -4.83623       -0.66629        1.92680
C         -1.19937       -3.93748        0.14787
C         -1.14136       -3.33872        1.43309
C         -0.73119       -2.01892        1.52504
C         -0.46378       -1.28411        0.40002
C         -0.62942       -1.82655       -0.84640
C         -1.03134       -3.13929       -1.01195
O         -1.38249       -5.34050        0.02495
C         -1.47564       -4.11163        2.71861
H         -0.60031       -1.54837        2.48326
H         -0.41919       -1.20245       -1.69738
C         -1.23733       -3.67673       -2.43613
C          4.49867        0.71614       -0.66679
C          3.81675       -0.52176       -0.78113
C          2.48469       -0.56974       -0.40948
C          1.85312        0.52539        0.11878
C          2.53341        1.69682        0.32330
C          3.87117        1.81252       -0.02018
O          5.79228        0.86852       -1.23297
C          4.47575       -1.79193       -1.34120
H          1.91207       -1.46971       -0.54727
H          1.99710        2.52817        0.74756
C          4.60846        3.12741        0.27862
C         -2.02506       -3.15879        3.80452
C         -2.56349       -5.17028        2.46128
C         -0.20125       -4.78160        3.25402
C         -1.73015       -2.55062       -3.37450
C          0.09873       -4.21295       -2.97285
C         -2.30664       -4.78346       -2.46476
C         -0.16831       -6.08082        0.00091
H         -2.36423       -3.72021        4.67480
H         -1.26590       -2.45972        4.15195
H         -2.87208       -2.58749        3.42651
H         -2.21927       -5.93196        1.76605
H         -2.84815       -5.67255        3.38549
H         -3.45484       -4.70906        2.03723
H          0.20869       -5.48290        2.53121
H          0.56577       -4.03687        3.46543
H         -0.40459       -5.32797        4.17468
H         -2.00335       -2.95158       -4.35017
H         -2.60697       -2.05518       -2.95844
H         -0.96099       -1.79858       -3.54322
H          0.84893       -3.42285       -2.99589
H          0.48249       -5.01473       -2.34632
H         -0.01414       -4.60019       -3.98509
H         -2.49708       -5.11820       -3.48414
H         -1.99702       -5.65030       -1.88660
H         -3.24473       -4.42081       -2.04587
H         -0.17159       -6.81292        0.80834
H         -0.08363       -6.61682       -0.94420
H          0.68690       -5.41390        0.11789
C          5.78289        1.30941       -2.58505
C          4.27040       -1.83875       -2.86303
C          5.97685       -1.83414       -1.00368
C          3.83839       -3.05731       -0.72080
C          6.10009        2.87565        0.56507
C          4.45170        4.08060       -0.91587
C          4.01938        3.80945        1.53449
H          4.72812       -0.98080       -3.34941
H          4.70829       -2.74106       -3.28904
H          3.20856       -1.82977       -3.10819
H          6.43031       -2.76275       -1.34945
H          6.51259       -1.01239       -1.47207
H          6.13003       -1.76184        0.07256
H          2.80907       -3.19472       -1.04882
H          4.38809       -3.95111       -1.01500
H          3.84714       -3.00227        0.36745
H          6.60775        3.79982        0.84017
H          6.21915        2.16649        1.38354
H          6.60853        2.46844       -0.30522
H          4.87636        3.65244       -1.82054
H          3.39903        4.28534       -1.10956
H          4.95148        5.03016       -0.72621
H          4.61986        4.67159        1.82397
H          3.99808        3.11844        2.37684
H          3.00672        4.17000        1.36050
H          6.27645        0.56963       -3.21501
H          4.75832        1.45563       -2.92967
H          6.33228        2.24702       -2.66787
