111
-148.55432877
P         -1.39338        2.63283        1.17766
P         -0.32892       -0.27080        0.54390
C         -0.93403        1.52478        2.54019
C         -0.53556        0.23434        2.26221
C         -0.24009        4.07432        1.08010
C          0.58008        4.01661       -0.19099
C         -0.95467        1.97094        3.84607
H         -1.23100        2.99148        4.05499
C         -0.59901        1.11300        4.87257
H         -0.61860        1.45958        5.89292
C         -0.21327       -0.18390        4.59134
H          0.06863       -0.84951        5.39050
C         -0.17171       -0.62212        3.27983
H          0.15841       -1.62045        3.03860
Pd        -1.58917        1.24744       -0.65966
Cl        -2.55891        2.96415       -1.72578
Cl        -1.63960       -0.25274       -2.33134
C         -1.18231        5.29162        1.17026
C         -2.99864        3.51542        1.44834
H          1.24992        4.87572       -0.27394
H          1.18612        3.10943       -0.23336
H         -0.06926        4.01499       -1.06878
H         -1.36852        5.66685        0.15462
H         -0.68941        6.11889        1.70289
H         -3.49184        3.54071        0.46759
C         -2.53953        4.93142        1.84003
C         -3.88424        2.82285        2.46237
H          0.40197        4.01242        1.96859
H         -2.43754        4.98284        2.93273
H         -3.31406        5.66961        1.58132
H         -4.09686        1.79369        2.16397
H         -3.40780        2.78706        3.44240
H         -4.83646        3.34479        2.58118
C         -0.93966       -4.73481       -0.10550
C         -2.05069       -3.90545        0.19429
C         -1.82370       -2.55602        0.41296
C         -0.57063       -2.02054        0.27003
C          0.48570       -2.79737       -0.12894
C          0.32719       -4.15274       -0.36553
O         -1.08917       -6.14726       -0.10822
C         -3.48245       -4.45360        0.29838
H         -2.62708       -1.89934        0.70063
H          1.44515       -2.32619       -0.25352
C          1.52437       -4.96593       -0.88265
C          3.61141        1.43093       -0.97523
C          3.36017        1.37784        0.41997
C          2.15811        0.84249        0.85058
C          1.26322        0.31018       -0.03944
C          1.54081        0.27680       -1.37985
C          2.72457        0.79156       -1.87891
O          4.72690        2.15886       -1.46872
C          4.34106        1.93666        1.46206
H          1.89211        0.85779        1.89275
H          0.78567       -0.11514       -2.03883
C          2.99179        0.70437       -3.38896
C         -4.51083       -3.36693       -0.08968
C         -3.69346       -5.63490       -0.66632
C         -3.75556       -4.89602        1.74363
C          2.43002       -4.08761       -1.77563
C          2.34841       -5.47259        0.31037
C          1.06080       -6.15128       -1.74907
C         -0.83874       -6.75713        1.15171
H         -5.51491       -3.78664       -0.14633
H         -4.54212       -2.56155        0.64253
H         -4.27180       -2.93765       -1.06237
H         -4.72669       -5.98035       -0.64332
H         -3.45597       -5.34201       -1.68847
H         -3.05897       -6.47830       -0.40505
H         -4.77134       -5.27585        1.85028
H         -3.06949       -5.68160        2.05116
H         -3.63318       -4.06030        2.43223
H          3.21062       -4.68672       -2.24391
H          1.84798       -3.61797       -2.56795
H          2.92732       -3.30529       -1.20429
H          3.21009       -6.04831       -0.02652
H          2.71293       -4.63813        0.90903
H          1.75123       -6.10910        0.95929
H          0.43489       -5.80385       -2.57035
H          1.91191       -6.68392       -2.17261
H          0.48226       -6.86545       -1.16864
H         -1.71575       -7.32474        1.46255
H          0.00057       -7.44687        1.06520
H         -0.61040       -5.99965        1.90255
C          4.45161        3.52581       -1.75061
C          4.20852        1.17423        2.80041
C          5.79890        1.77329        0.99565
C          4.02522        3.41927        1.71257
C          4.49939        0.60736       -3.68400
C          2.33661       -0.56220       -3.98531
C          2.39002        1.93767       -4.07996
H          4.29876        0.09948        2.64486
H          4.98910        1.47820        3.49749
H          3.25360        1.37232        3.28516
H          6.01644        0.72852        0.77627
H          5.99518        2.35037        0.09561
H          6.49587        2.11137        1.76208
H          4.70281        3.84308        2.45327
H          4.11758        4.00285        0.79990
H          3.00643        3.53889        2.08026
H          4.68252        0.48288       -4.75097
H          5.02640        1.50186       -3.36245
H          4.93774       -0.24327       -3.16310
H          2.65141       -1.45150       -3.44088
H          1.24950       -0.50812       -3.95633
H          2.62219       -0.69061       -5.02906
H          1.31659        1.99378       -3.89983
H          2.55015        1.89901       -5.15704
H          2.83561        2.85650       -3.70657
H          4.65149        3.73076       -2.80220
H          3.41022        3.75921       -1.52724
H          5.10307        4.16150       -1.15124
