105
-153.05841874
Cl         2.83916        2.42140        0.20847
Pd         0.84111        1.70439       -0.54998
P         -1.33908        1.25656       -1.27374
N         -1.38461       -0.36107       -0.68331
C         -0.41914       -1.24669       -1.14755
C         -0.06585       -2.31549       -0.28687
C          1.03711       -3.12865       -0.60200
C          1.42502       -4.23253        0.35779
C          2.72938       -4.97327        0.01343
C          2.91013       -5.12544       -1.49980
C          2.92356       -3.74758       -2.17711
C          1.74801       -2.89337       -1.78234
C          1.36508       -1.85486       -2.62705
C          0.30458       -1.04207       -2.32099
H          0.03771       -0.22446       -2.96491
H          1.92709       -1.68340       -3.52935
H          3.84671       -3.21569       -1.91850
H          3.82564       -5.68784       -1.73221
H          3.58220       -4.41737        0.41840
H          1.49052       -3.80344        1.36482
C         -0.98611       -2.64888        0.83349
C         -1.11191       -1.84030        1.99757
C         -1.95241       -2.28392        3.01863
C         -2.68545       -3.43562        2.89395
C         -2.65660       -4.18287        1.72399
C         -3.55506       -5.39314        1.63073
C         -3.37353       -6.22461        0.35029
C         -3.14911       -5.31888       -0.86405
C         -1.89095       -4.46018       -0.66892
C         -1.82959       -3.77124        0.67658
H         -1.00349       -5.08652       -0.80258
H         -4.01943       -4.66354       -0.99438
H         -4.23520       -6.88736        0.18770
H         -4.59587       -5.05533        1.70324
H         -3.32829       -3.75280        3.69778
H         -2.03503       -1.69123        3.91334
N         -0.52725       -0.58700        2.17111
P          0.78950        0.28864        1.36186
C          2.24234       -0.76337        1.33502
C          2.42402       -1.61842        2.39612
C          3.56999       -2.39040        2.47257
C          4.53693       -2.31628        1.47910
C          4.33443       -1.44857        0.41498
C          3.19157       -0.67436        0.34448
H          3.04847        0.01304       -0.47252
H          5.08491       -1.37341       -0.35326
C          5.78574       -3.12255        1.56933
H          3.71963       -3.05436        3.30666
H          1.66818       -1.67269        3.16388
C          1.16190        1.62596        2.51627
C          2.26516        1.55814        3.33381
C          2.54605        2.59490        4.20428
C          1.71941        3.70801        4.26750
C          0.61554        3.76448        3.42851
C          0.33878        2.72548        2.55980
H         -0.51505        2.77699        1.90740
H         -0.02413        4.63013        3.45537
C          2.03720        4.84019        5.18095
H          3.41612        2.54828        4.83673
H          2.91514        0.70100        3.28082
H         -0.61124       -0.17462        3.09270
H         -1.31991       -0.30721        0.33144
C         -1.98581        1.22235       -2.94583
C         -1.40249        1.92898       -3.96940
C         -1.94084        1.87281       -5.24037
C         -3.07289        1.11004       -5.49410
C         -3.64189        0.39233       -4.45041
C         -3.10001        0.45171       -3.17825
H         -3.53330       -0.10688       -2.36289
H         -4.51013       -0.21540       -4.63979
C         -3.63876        1.02680       -6.86908
H         -1.48142        2.41934       -6.04624
H         -0.51819        2.50932       -3.77024
C         -2.34730        2.30891       -0.23405
C         -2.52500        1.98069        1.08965
C         -3.27210        2.80742        1.90700
C         -3.83845        3.97144        1.40566
C         -3.65267        4.28145        0.06481
C         -2.90373        3.45384       -0.75222
H         -2.74646        3.69621       -1.79137
H         -4.09628        5.17708       -0.33539
C         -4.65919        4.85217        2.28220
H         -3.41385        2.55639        2.94444
H         -2.04968        1.10253        1.49532
Cl         1.14028        2.90206       -2.42673
H          2.94107       -3.85698       -3.26900
H          2.76213       -5.95417        0.50808
H          2.08385       -5.72227       -1.90622
H          0.60762       -4.95738        0.41916
H         -3.08315       -5.91071       -1.78801
H         -1.83094       -3.69839       -1.45680
H         -3.38990       -6.02031        2.51613
H         -2.50921       -6.89059        0.46740
H          6.58428       -2.54712        2.03945
H          5.63083       -4.02694        2.15946
H          6.12870       -3.42771        0.57960
H          1.12924        5.34813        5.50910
H          2.56215        4.49245        6.07176
H          2.67139        5.57356        4.68112
H         -3.18190        0.20820       -7.42683
H         -4.71586        0.85598       -6.84202
H         -3.46445        1.95024       -7.42310
H         -4.30146        4.82501        3.31247
H         -4.62013        5.88931        1.94626
H         -5.70333        4.53646        2.27970
