45
-71.81647421
C          0.39643        0.64035        2.50681
P          0.97050        0.63822        0.77472
P         -1.61082        0.28017       -1.04723
C         -2.36267       -0.04191       -2.67718
Cl         1.66923       -2.43319        0.56688
H         -0.68942        0.64972        2.53503
H         -3.18642        0.64436       -2.85136
Cl        -0.97812       -2.76184       -1.53045
C          0.30393        2.04436       -0.13707
C         -0.80389        1.89226       -0.94295
C         -1.31824        2.97631       -1.62415
C         -0.71005        4.21389       -1.50651
C          0.40481        4.36381       -0.70458
C          0.91279        3.27624       -0.01598
H         -2.19499        2.85093       -2.23848
H         -1.10861        5.06149       -2.03938
H          0.87835        5.32741       -0.61296
H          1.78142        3.37730        0.61503
Pd         0.02477       -1.17886       -0.29746
H         -2.73902       -1.06019       -2.71393
H          0.76935        1.52111        3.02167
H         -1.61911        0.08722       -3.45842
C         -4.50334       -0.28687        2.40932
C         -3.97441        0.96433        2.15759
C         -3.10417        1.14413        1.09759
C         -2.77684        0.07388        0.29760
C         -3.29093       -1.17679        0.55039
C         -4.16182       -1.35957        1.60884
H         -5.18103       -0.42752        3.23552
H         -4.23723        1.79909        2.78634
H         -2.67598        2.11190        0.89213
H         -2.98169       -2.00509       -0.06741
H         -4.56633       -2.33762        1.81131
C          5.48760        0.44045        0.27920
C          4.94881        0.50524        1.54907
C          3.57692        0.56903        1.71462
C          2.75560        0.56927        0.61018
C          3.28733        0.50423       -0.65757
C          4.65931        0.43948       -0.82556
H          6.55637        0.38800        0.15026
H          5.59565        0.50309        2.41102
H          3.14548        0.61495        2.70124
H          2.62578        0.50178       -1.51001
H          5.07883        0.38522       -1.81666
H          0.75313       -0.25015        3.01657
