171
-217.84249722
P         -1.62053        0.36126       -0.42294
P          1.57797       -0.41086       -0.30961
C         -0.87660        1.28897       -1.76753
C          0.91741       -1.41184       -1.64416
C         -0.05966        0.64376       -2.68931
C          0.58296        1.41373       -3.67835
C          0.35421        2.77863       -3.72941
C         -0.48595        3.39344       -2.82561
C         -1.09543        2.64298       -1.83972
C          1.15264       -2.76517       -1.62488
C          0.59869       -3.58054       -2.59149
C         -0.20830       -3.03087       -3.56479
C         -0.45829       -1.66875       -3.60095
C          0.13543       -0.83227       -2.63653
Cl         1.46921        0.38787        2.88778
Cl        -1.71154       -0.42073        2.78173
C         -1.33486       -1.11277       -4.66706
C          1.49900        0.79101       -4.67334
H         -0.66317        4.45486       -2.88501
H         -1.75030        3.11642       -1.12674
H          1.77413       -3.18718       -0.85208
H          0.79101       -4.64096       -2.57937
H          0.84438        3.36141       -4.49104
H         -0.65520       -3.66390       -4.31277
C         -3.97871       -3.23737       -1.80721
C         -2.93061       -3.42426       -0.91412
C         -2.21564       -2.30494       -0.50746
C         -2.53534       -1.06376       -0.99726
C         -3.56838       -0.89513       -1.88594
C         -4.31989       -1.98550       -2.30686
H         -4.54995       -4.09563       -2.10667
H         -1.40623       -2.38913        0.19696
H         -3.79908        0.09711       -2.23694
C         -4.20556        2.87873        2.32954
C         -4.77100        1.77403        1.70509
C         -3.97344        1.03867        0.83708
C         -2.67045        1.40473        0.60630
C         -2.12694        2.49503        1.23991
C         -2.88317        3.25241        2.12438
H         -4.81379        3.44926        3.00575
H         -4.35486        0.15694        0.35375
H         -1.09430        2.74038        1.06033
C          4.34703       -2.77165        2.40557
C          3.00840       -3.14167        2.33362
C          2.18185       -2.43173        1.47301
C          2.67485       -1.38538        0.73423
C          3.99548       -1.02548        0.82824
C          4.86247       -1.71438        1.66433
H          5.00144       -3.31400        3.06023
H          1.13839       -2.68527        1.39101
H          4.35242       -0.18793        0.25470
C          3.91533        3.24829       -1.56130
C          2.92034        3.38471       -0.60062
C          2.18893        2.25494       -0.25974
C          2.44717        1.05079       -0.86467
C          3.43457        0.92955       -1.81128
C          4.19489        2.03432       -2.17736
H          4.50826        4.10303       -1.82686
H          1.43026        2.30559        0.50270
H          3.61904       -0.04018       -2.24167
Pd        -0.07058       -0.04413        1.29895
C         -3.81366       -5.31812        0.46436
C         -2.62120       -4.82772       -0.37582
C         -1.36200       -4.82699        0.51223
C         -2.38294       -5.79100       -1.55373
H         -4.72160       -5.37440       -0.13521
H         -3.62093       -6.30913        0.87488
H         -4.00321       -4.63871        1.29523
H         -1.13507       -5.83365        0.86292
H         -0.49698       -4.46485       -0.04203
H         -1.49959       -4.19641        1.39030
H         -2.12009       -6.78638       -1.19605
H         -3.27126       -5.88671       -2.17663
H         -1.56976       -5.43377       -2.18428
C         -6.55518       -0.88093       -2.53338
C         -5.51757       -1.76782       -3.24462
C         -6.19272       -3.09928       -3.62700
C         -5.05038       -1.07502       -4.53760
H         -7.42746       -0.71574       -3.16553
H         -6.89243       -1.35113       -1.60995
H         -6.13506        0.09269       -2.28339
H         -6.58443       -3.60873       -2.74680
H         -7.02813       -2.92780       -4.30576
H         -5.49038       -3.76448       -4.12915
H         -5.89304       -0.88291       -5.20160
H         -4.56942       -0.12062       -4.32732
H         -4.34027       -1.70190       -5.07480
C         -7.16071        2.54211        1.67313
C         -6.21899        1.37519        2.02283
C         -6.33240        1.04362        3.52205
C         -6.65678        0.13828        1.21524
H         -6.92891        3.42971        2.26047
H         -7.07184        2.80513        0.61919
H         -8.19955        2.27638        1.86822
H         -7.34504        0.73259        3.77810
H         -5.65211        0.23479        3.78819
H         -6.08211        1.90641        4.13820
H         -7.68798       -0.12989        1.44458
H         -6.59620        0.33373        0.14559
H         -6.03260       -0.72474        1.44648
C         -0.86941        4.07997        3.38690
C         -2.25131        4.46575        2.82125
C         -3.12188        4.96570        3.99072
C         -2.09638        5.60145        1.79584
H         -0.42977        4.90826        3.94214
H         -0.95368        3.22763        4.06075
H         -0.17291        3.81156        2.59511
H         -4.08363        5.33732        3.63829
H         -3.30175        4.16761        4.71084
H         -2.62997        5.78406        4.51638
H         -1.61415        6.47062        2.24280
H         -1.49622        5.28065        0.94598
H         -3.06916        5.91158        1.41465
C          1.17209       -3.79478        3.91743
C          2.41853       -4.29379        3.15899
C          3.42775       -4.83177        4.19153
C          2.02555       -5.43839        2.20922
H          0.76094       -4.57984        4.55162
H          1.42300       -2.94438        4.55099
H          0.38579       -3.47893        3.23344
H          4.30562       -5.25348        3.70264
H          3.75342       -4.04131        4.86750
H          2.97932       -5.62068        4.79529
H          1.58343       -6.26937        2.75855
H          1.30183       -5.10077        1.46927
H          2.89822       -5.81175        1.67368
C          6.38640        0.19784        2.21248
C          6.32934       -1.26918        1.74508
C          6.97305       -1.39290        0.35146
C          7.13442       -2.13067        2.73636
H          5.90400        0.31070        3.18313
H          7.41747        0.53849        2.30498
H          5.87976        0.85855        1.50981
H          6.92754       -2.42223       -0.00364
H          6.46121       -0.76578       -0.37746
H          8.01949       -1.08940        0.37610
H          8.17181       -1.79943        2.78225
H          6.72112       -2.06015        3.74233
H          7.13605       -3.17796        2.43479
C          1.17858        5.12829       -0.16929
C          2.63098        4.71053        0.11558
C          3.56586        5.83776       -0.36252
C          2.83157        4.51948        1.63103
H          0.92624        6.05043        0.35386
H          1.02916        5.29278       -1.23582
H          0.48063        4.35629        0.14928
H          3.44728        6.01915       -1.43063
H          3.34332        6.76994        0.15666
H          4.60933        5.59183       -0.16632
H          2.17006        3.74988        2.02584
H          3.85617        4.21815        1.84784
H          2.62881        5.44366        2.17183
C          5.17942        2.95981       -4.29928
C          5.36490        1.93265       -3.16639
C          5.46126        0.52702       -3.79144
C          6.67800        2.22314       -2.41618
H          4.23718        2.79713       -4.82075
H          5.17668        3.97934       -3.91606
H          5.98516        2.88325       -5.02920
H          6.28205        0.47763       -4.50684
H          5.64498       -0.23026       -3.02957
H          4.54528        0.26803       -4.32122
H          6.67640        3.22695       -1.99271
H          6.81887        1.51681       -1.59832
H          7.53560        2.14275       -3.08390
H         -1.83352       -0.20151       -4.33363
H          1.80960       -0.20723       -4.36213
H         -2.10645       -1.83062       -4.94668
H         -0.75988       -0.87710       -5.56324
H          2.40004        1.39178       -4.79757
H          1.01765        0.70791       -5.64864
