171
-217.83544453
P         -1.53806        0.16720       -0.20325
P          1.69474       -0.72360        0.22872
C         -0.70351        0.66404       -1.72566
C          0.86096       -1.96664       -0.78636
C          0.02036       -0.29011       -2.42979
C          0.68041        0.08464       -3.61595
C          0.55843        1.38714       -4.07097
C         -0.16183        2.32306       -3.35899
C         -0.78645        1.95665       -2.18358
C          0.94662       -3.24966       -0.29959
C          0.29292       -4.28372       -0.94115
C         -0.47279       -4.01624       -2.05554
C         -0.58940       -2.72849       -2.55063
C          0.10704       -1.68120       -1.91890
Cl         1.15187       -0.43115        3.42166
Cl        -1.99676       -1.00542        2.81581
C         -1.46561       -2.48654       -3.72929
C          1.49297       -0.89951       -4.38331
H         -0.23225        3.33813       -3.71448
H         -1.33250        2.68915       -1.61660
H          1.52416       -3.43777        0.59364
H          0.37155       -5.29020       -0.56382
H          1.03693        1.66492       -4.99453
H         -1.00073       -4.81402       -2.55044
C         -4.67819       -2.91832       -1.29404
C         -3.84074       -3.17623       -0.21499
C         -2.88740       -2.22163        0.10961
C         -2.77920       -1.06188       -0.61452
C         -3.61191       -0.82563       -1.68066
C         -4.58203       -1.75162       -2.04426
H         -5.43089       -3.63871       -1.54951
H         -2.23652       -2.37580        0.95143
H         -3.50100        0.08805       -2.23825
C         -3.73803        3.77541        1.51473
C         -3.90850        3.43927        0.17844
C         -3.24630        2.31533       -0.30020
C         -2.40657        1.58890        0.51030
C         -2.25591        1.94366        1.82971
C         -2.92256        3.03712        2.36182
H         -4.26268        4.62947        1.89959
H         -3.37791        2.00511       -1.32123
H         -1.62999        1.35390        2.47249
C          5.78366       -2.38237        1.24835
C          5.30772       -2.48581       -0.05275
C          4.03834       -1.98761       -0.31918
C          3.29096       -1.41247        0.67947
C          3.77691       -1.32219        1.95848
C          5.03837       -1.80955        2.27151
H          6.76552       -2.75788        1.47117
H          3.61812       -2.04664       -1.30899
H          3.15206       -0.87811        2.71074
C          2.73591        3.41575       -1.30336
C          1.80601        3.31237       -0.27546
C          1.45804        2.03951        0.15843
C          2.02086        0.92477       -0.41935
C          2.94845        1.04920       -1.42443
C          3.32727        2.30309       -1.88754
H          3.03298        4.38836       -1.64753
H          0.76168        1.92187        0.96972
H          3.39083        0.15711       -1.83138
Pd        -0.17040       -0.49124        1.61566
C         -5.05102       -5.39124        0.12539
C         -3.96151       -4.43777        0.65184
C         -4.32277       -4.02432        2.09081
C         -2.61785       -5.18879        0.65354
H         -6.03085       -4.91435        0.13929
H         -4.83403       -5.70874       -0.89443
H         -5.11256       -6.28657        0.74392
H         -4.43059       -4.89796        2.73320
H         -3.55380       -3.38506        2.52306
H         -5.26254       -3.47297        2.10822
H         -2.67666       -6.09330        1.25853
H         -2.33969       -5.47842       -0.35920
H         -1.81812       -4.56980        1.05833
C         -6.40109       -2.64831       -3.58401
C         -5.55572       -1.42263       -3.18633
C         -4.77847       -0.95380       -4.43215
C         -6.49847       -0.30021       -2.71796
H         -5.76416       -3.48450       -3.87235
H         -7.04367       -2.96858       -2.76432
H         -7.04624       -2.41442       -4.43085
H         -4.09515       -1.72874       -4.77679
H         -5.46102       -0.72478       -5.25042
H         -4.19721       -0.05532       -4.22999
H         -5.93681        0.59376       -2.45060
H         -7.20801       -0.03157       -3.50035
H         -7.06368       -0.61268       -1.84010
C         -4.32525        5.76579       -0.66678
C         -4.80507        4.30263       -0.72037
C         -6.25765        4.21058       -0.22119
C         -4.75726        3.83646       -2.18906
H         -4.92488        6.39665       -1.32273
H         -4.39758        6.17308        0.34078
H         -3.28544        5.84100       -0.98477
H         -6.34589        4.57138        0.80304
H         -6.92369        4.80644       -0.84501
H         -6.60692        3.17836       -0.24335
H         -3.73967        3.87084       -2.57814
H         -5.13248        2.81920       -2.29169
H         -5.37406        4.47760       -2.81866
C         -3.56148        4.60941        4.25946
C         -2.74738        3.36713        3.85091
C         -1.26063        3.64083        4.14132
C         -3.22487        2.16813        4.69198
H         -3.42455        4.83019        5.31799
H         -3.24594        5.48740        3.69601
H         -4.62677        4.45333        4.09055
H         -1.10688        3.88567        5.19202
H         -0.64500        2.77253        3.90945
H         -0.90237        4.47879        3.54444
H         -3.13247        2.37688        5.75753
H         -4.26957        1.94165        4.48047
H         -2.64021        1.27466        4.47603
C          6.53965       -4.55872       -0.74422
C          6.18189       -3.11599       -1.14584
C          7.46796       -2.28506       -1.30651
C          5.45291       -3.15521       -2.50403
H          7.10671       -4.58292        0.18555
H          5.63716       -5.15284       -0.60152
H          7.14244       -5.03988       -1.51427
H          8.04504       -2.26696       -0.38268
H          8.10395       -2.69756       -2.08957
H          7.22988       -1.25519       -1.57217
H          5.20105       -2.15108       -2.84456
H          6.08183       -3.61288       -3.26749
H          4.53464       -3.73879       -2.43958
C          4.62864       -1.06790        4.67144
C          5.61842       -1.72748        3.69064
C          6.90969       -0.88935        3.66368
C          5.93021       -3.14816        4.19575
H          5.05194       -1.01897        5.67452
H          4.39091       -0.04979        4.36403
H          3.69998       -1.63485        4.73269
H          7.66320       -1.34309        3.02096
H          6.70909        0.11365        3.28743
H          7.33558       -0.79654        4.66259
H          6.32507       -3.12323        5.21127
H          5.02913       -3.76119        4.19873
H          6.66800       -3.64080        3.56358
C         -0.30389        4.55161        0.30773
C          1.22843        4.54538        0.43701
C          1.76693        5.85905       -0.16184
C          1.62427        4.49004        1.92409
H         -0.73990        5.39427        0.84400
H         -0.60270        4.62959       -0.73684
H         -0.73375        3.63988        0.71590
H          2.85100        5.91895       -0.06728
H          1.50476        5.94557       -1.21621
H          1.34345        6.72045        0.35461
H          2.70853        4.47478        2.03261
H          1.24345        5.35736        2.46290
H          1.23021        3.59571        2.40467
C          4.93784        1.13068       -3.47169
C          4.41919        2.48576       -2.95173
C          5.60265        3.25067       -2.33062
C          3.85475        3.28332       -4.14091
H          4.13267        0.54737       -3.91597
H          5.70161        1.27527       -4.23562
H          5.38418        0.54691       -2.66689
H          6.40723        3.37956       -3.05440
H          5.29922        4.23968       -1.98919
H          6.00272        2.70903       -1.47360
H          4.61269        3.42224       -4.91166
H          3.01204        2.76019       -4.58963
H          3.51037        4.26921       -3.83124
H         -1.63157       -1.42118       -3.89360
H          0.86582       -1.47961       -5.06100
H         -2.44034       -2.95422       -3.58244
H         -1.02700       -2.90582       -4.63584
H          2.00172       -1.59515       -3.71390
H          2.25517       -0.40073       -4.98348
