72
-108.39321228
Cl        -1.83496        0.69023        2.70250
Cl         0.87212       -0.98211        2.79726
P          1.15147       -1.07368       -0.25136
P         -2.23091        0.13094       -0.41006
C         -3.24896       -1.46266       -0.23146
C         -3.65316       -1.64831        1.23275
C         -4.48813       -1.38540       -1.11637
C         -3.30578        1.67953       -0.13750
C         -4.08069        2.02461       -1.41618
C         -1.40652        0.44595       -2.08023
C         -1.44649       -0.70896       -3.05969
C          1.16417        0.26414       -1.48454
C          0.00484        0.99881       -1.98965
C          0.50966        2.06579       -2.85617
C          1.95785        1.99759       -2.86389
C          2.36008        0.88337       -2.02554
C         -2.39398       -2.65857       -0.62918
H         -2.78255       -1.64609        1.88846
H         -4.33341       -0.87428        1.57670
H         -5.17558       -0.61303       -0.77571
H         -5.03202       -2.33125       -1.09783
C         -4.29729        1.51972        1.01113
H         -3.43885        2.46630       -2.17776
H         -4.85722        2.76147       -1.20415
H         -2.01811        1.24913       -2.50139
H         -2.45060       -1.10913       -3.19350
H         -0.78873       -1.50958       -2.73006
H         -1.08549       -0.39945       -4.04270
H         -0.10450        2.73852       -3.45761
H          2.62784        2.64402       -3.43544
Pd        -0.53433       -0.29960        1.17627
H          3.38342        0.55887       -1.82351
C         -2.32978        2.79940        0.18378
H         -4.56566        1.14954       -1.84516
H         -3.80453        1.18850        1.92262
H         -4.77785        2.47347        1.23379
H         -5.09092        0.81792        0.76177
H         -1.56198        2.87524       -0.58745
H         -2.84329        3.76107        0.24571
H         -1.84562        2.62156        1.14329
H         -4.16335       -2.60303        1.37031
H         -4.22890       -1.17438       -2.15267
H         -2.93346       -3.59230       -0.46172
H         -2.11619       -2.63691       -1.67936
H         -1.48626       -2.69524       -0.02952
C          2.83636       -1.22504        0.39674
C          3.72725       -2.11678       -0.14918
C          4.92607       -1.98301        0.55264
C          4.71731       -1.01026        1.49872
O          3.44140       -0.53504        1.40996
H          3.52566       -2.78873       -0.96875
H          5.83609       -2.53568        0.38548
H          5.44652       -0.65896        2.21837
C          0.74156       -2.69976       -0.90664
C          0.78103       -3.81834       -0.11176
C          0.42729       -4.90321       -0.91601
C          0.18678       -4.39827       -2.17065
O          0.37308       -3.04483       -2.17805
H          1.04060       -3.83777        0.93529
H          0.35850       -5.93482       -0.61181
H         -0.11006       -4.97522       -3.03767
Fe         1.29577        2.21409       -0.94938
C          2.96260        2.98591       -0.02459
C          2.22722        2.11968        0.87637
C          0.89164        2.65508        1.02309
C          0.79392        3.84947        0.20451
C          2.07650        4.05720       -0.44114
H          4.00551        2.86019       -0.32447
H          2.59975        1.20246        1.33245
H          0.12261        2.24803        1.68216
H         -0.06550        4.52042        0.14169
H          2.33662        4.88593       -1.10343
