72
-108.39690735
Cl        -1.95568        0.15986        2.83538
Cl         0.88658       -1.17343        2.72559
P          1.21173       -1.00762       -0.26992
P         -2.24449        0.17377       -0.38704
C         -3.48790       -1.25567       -0.26884
C         -4.24173       -1.16103        1.05452
C         -4.48079       -1.22312       -1.43746
C         -3.10523        1.86272       -0.15965
C         -4.46165        1.86868       -0.85741
C         -1.41346        0.30210       -2.06826
C         -1.29493       -1.00059       -2.83859
C          1.16472        0.30563       -1.52240
C         -0.04873        0.97698       -1.99085
C          0.38820        2.10402       -2.81698
C          1.83798        2.09769       -2.87210
C          2.31924        0.95871       -2.11301
C         -2.71194       -2.56777       -0.28524
H         -4.91232       -2.01332        1.17585
H         -3.55321       -1.16287        1.89868
H         -5.29199       -0.51894       -1.26277
H         -4.94448       -2.20127       -1.57546
C         -3.28238        2.17731        1.32073
H         -4.37652        1.51973       -1.88693
H         -4.87247        2.87928       -0.88559
H         -2.08454        0.96350       -2.62875
H         -0.67497       -1.71043       -2.29738
H         -0.81420       -0.83613       -3.80511
H         -2.25496       -1.47472       -3.03412
H         -0.26758        2.76339       -3.38838
H          2.45921        2.79267       -3.44187
Pd        -0.55891       -0.39770        1.17348
H          3.36008        0.68248       -1.93138
C         -2.23111        2.93805       -0.79854
H         -5.18545        1.25021       -0.33033
H         -2.32041        2.23357        1.82690
H         -3.78308        3.13708        1.45690
H         -3.87834        1.42022        1.82671
H         -2.24100        2.87305       -1.88622
H         -2.58220        3.93663       -0.53245
H         -1.20309        2.84383       -0.46415
H         -4.85179       -0.26181        1.11012
H         -4.00324       -0.94509       -2.37437
H         -1.97006       -2.60424        0.51269
H         -3.38297       -3.41675       -0.14404
H         -2.19467       -2.72136       -1.22910
C          2.89766       -1.08167        0.38505
C          3.34269       -2.08971        1.20262
C          4.67853       -1.81647        1.49849
C          4.99470       -0.65194        0.84264
O          3.91096       -0.19124        0.15176
H          2.75466       -2.92372        1.55206
H          5.33261       -2.40350        2.12232
H          5.95815       -0.15767        0.86101
C          0.89391       -2.63681       -0.96192
C          1.72421       -3.21739       -1.88781
C          1.17771       -4.46394       -2.19837
C          0.03503       -4.58904       -1.44616
O         -0.15248       -3.47063       -0.68399
H          2.62663       -2.78225       -2.28787
H          1.57633       -5.18750       -2.89058
H         -0.63122       -5.44283       -1.44602
Fe         1.23693        2.19363       -0.93266
C          2.86727        2.59114        0.21893
C          1.84829        1.93137        1.00989
C          0.66389        2.76104        0.99307
C          0.94075        3.92118        0.16576
C          2.31244        3.82854       -0.29862
H          3.88440        2.22346        0.06512
H          1.96178        0.99726        1.56450
H         -0.24260        2.56956        1.56777
H          0.26162        4.75743       -0.01493
H          2.83597        4.56136       -0.91678
