87
-129.18610478
P         -1.68218       -0.38298       -0.12177
P          1.54938        0.33423       -0.19267
C         -1.44356        0.93016       -1.34385
C          1.32182       -0.67913       -1.65872
C         -0.49299        0.87654       -2.36168
C         -0.29599        2.01453       -3.16795
C         -1.07265        3.14044       -2.95703
C         -2.02066        3.17089       -1.95842
C         -2.19450        2.06550       -1.14936
C          2.12537       -1.77573       -1.85299
C          1.96070       -2.56529       -2.97370
C          0.98561       -2.24803       -3.89574
C          0.16281       -1.14803       -3.71755
C          0.33753       -0.33787       -2.57755
Cl         1.31675        1.19713        2.89696
Cl        -1.38718       -0.59082        3.14269
H         -2.61352        4.05676       -1.79964
H         -2.91938        2.09182       -0.35261
H          2.88803       -2.01303       -1.13024
H          2.58885       -3.42796       -3.12410
H         -0.91960        4.00491       -3.58067
H          0.84959       -2.86464       -4.76798
C         -0.82284       -4.62557       -1.50323
C         -0.30963       -4.18115       -0.29243
C         -0.60605       -2.88664        0.11548
C         -1.37697       -2.06352       -0.67311
C         -1.90599       -2.52118       -1.85651
C         -1.62657       -3.80889       -2.27471
H         -0.58879       -5.62215       -1.83679
C          0.57612       -5.04910        0.52994
H         -0.25478       -2.53073        1.06876
H         -2.51551       -1.86310       -2.45516
H         -2.02426       -4.16926       -3.20921
C         -5.82094       -0.04558        1.74882
C         -5.56506       -1.02280        0.80738
C         -4.30680       -1.12530        0.24420
C         -3.31404       -0.25376        0.62750
C         -3.56834        0.72184        1.56386
C         -4.82861        0.84414        2.13614
H         -6.79741        0.03023        2.19614
H         -6.34367       -1.70793        0.51452
H         -4.09212       -1.88627       -0.48819
H         -2.77670        1.38462        1.87244
C         -5.08464        1.87559        3.17785
C          4.94056       -1.38439        2.32166
C          5.05812       -0.11516        1.79027
C          4.03453        0.40947        1.02408
C          2.90527       -0.33918        0.79040
C          2.78485       -1.60204        1.32276
C          3.79914       -2.14310        2.10222
H          5.73772       -1.79567        2.91714
H          5.94536        0.46795        1.97524
H          4.10820        1.40300        0.61347
H          1.89682       -2.17861        1.12945
C          3.66661       -3.51704        2.65859
C          2.35403        4.63568       -1.40590
C          3.09843        3.61246       -1.95960
C          2.86460        2.30451       -1.57705
C          1.89324        2.03521       -0.64177
C          1.15611        3.05207       -0.08137
C          1.37780        4.37187       -0.45490
H          2.52466        5.65355       -1.71263
H          3.85405        3.83108       -2.69622
H          3.42231        1.49036       -2.01289
H          0.39507        2.82216        0.64507
C          0.54736        5.46643        0.11618
Pd        -0.07405        0.14576        1.48324
C          0.73823        2.04074       -4.23983
C         -0.88901       -0.85261       -4.72954
H          1.46548        1.23798       -4.11429
H          0.28156        1.93306       -5.22435
H          1.28712        2.98342       -4.22603
H         -0.44668       -0.46447       -5.64785
H         -1.44871       -1.75422       -4.98261
H         -1.60317       -0.11532       -4.36120
H          0.32100       -6.10248        0.40645
H          1.62016       -4.91854        0.24148
H          0.48722       -4.80857        1.59032
H         -6.14462        2.12722        3.23420
H         -4.76946        1.51849        4.15925
H         -4.53641        2.79396        2.96260
H          2.64958       -3.69886        3.00922
H          3.90153       -4.26636        1.90131
H          4.33969       -3.66898        3.50346
H         -0.35354        5.61899       -0.47985
H          0.24005        5.23347        1.13675
H          1.09858        6.40741        0.14248
