64
-97.20782334
Cl        -1.51601       -1.46829       -2.58063
Cl         1.65867       -1.40630       -2.90463
P          1.95149       -0.61913        0.28087
C          2.21132       -2.29352        1.02663
C          3.71733       -0.14333       -0.03676
P         -1.28165       -0.15551        0.38133
C          1.23890        0.57125        1.46882
C         -0.19014        0.80562        1.49735
C         -0.44557        1.90607        2.41517
C          0.83630        2.35776        2.92767
C          1.87861        1.51209        2.37367
H         -1.41694        2.34950        2.63804
H          0.98728        3.17132        3.64056
Pd         0.22113       -0.98514       -1.24216
H          2.95081        1.59528        2.55907
C         -4.89218        2.38447       -0.75243
C         -4.16404        1.75582       -1.74268
C         -3.08102        0.96740       -1.40369
C         -2.71900        0.82252       -0.08370
C         -3.45715        1.42944        0.90716
C         -4.54523        2.21627        0.57351
H         -5.73872        2.99831       -1.01389
H         -4.44375        1.87148       -2.77701
H         -2.53072        0.43783       -2.16241
H         -3.18967        1.27214        1.93950
H         -5.12122        2.69545        1.34811
C         -2.73013       -3.96587        2.38433
C         -2.37092       -2.87726        3.15548
C         -1.93452       -1.71466        2.54555
C         -1.85883       -1.65341        1.17334
C         -2.22016       -2.73225        0.40134
C         -2.65697       -3.89558        1.00672
H         -3.07020       -4.87196        2.85879
H         -2.42954       -2.93245        4.23012
H         -1.64782       -0.85574        3.13136
H         -2.15604       -2.65292       -0.67196
H         -2.93918       -4.74351        0.40451
C          4.05749       -0.14607       -1.51053
H          3.85451        0.86069        0.38586
C          4.50615       -1.19516        0.76791
H          4.71114       -0.81646        1.78000
C          3.72535       -2.53297        0.86736
H          5.49074       -1.35354        0.30417
C          1.74276       -2.30449        2.46541
H          1.63079       -3.00695        0.42571
H          4.09370       -3.13577        1.70996
H          3.91689       -3.13409       -0.03341
H          2.29241       -1.56660        3.05323
H          0.68193       -2.05731        2.53925
H          1.89479       -3.28143        2.93039
H          5.10252        0.12182       -1.68121
H          3.89755       -1.13766       -1.93675
H          3.43611        0.55487       -2.07026
Fe         0.78578        2.45706        0.85882
C          2.10391        3.17653       -0.54045
C          1.36114        4.25315        0.09456
C         -0.05422        4.06519       -0.17722
C         -0.18639        2.81663       -0.90457
C          1.13917        2.27965       -1.14697
H          3.19062        3.06829       -0.56305
H          1.79990        5.10281        0.62320
H         -0.87012        4.71482        0.14623
H         -1.12325        2.38487       -1.25730
H          1.36812        1.38991       -1.73654
