59
-75.79849050
Cl         1.53968        0.90246        2.31848
P          1.61021        0.00188       -0.78344
P         -1.57345       -0.11657       -0.82995
C          0.68724        0.59713       -2.26762
H          0.50674        1.66627       -2.14059
H          1.33110        0.48076       -3.14447
C         -0.60621       -0.16016       -2.41166
H         -0.40868       -1.20736       -2.65138
H         -1.23123        0.23839       -3.21667
C          2.21096       -1.72221       -1.10343
H          1.71302       -2.02973       -2.03211
C          3.24698        0.83897       -0.60226
H          3.50934        0.77402        0.46080
C         -2.44435       -1.70461       -0.42625
H         -2.19216       -1.92744        0.61785
C         -3.02918        1.02804       -0.92104
H         -3.20027        1.21481       -1.98816
C          3.73008       -1.56307       -1.34302
H          4.27892       -2.05113       -0.52867
H          4.03134       -2.10876       -2.24966
C          4.16465       -0.07258       -1.43603
H          4.12681        0.25894       -2.48351
H          5.21349        0.05330       -1.12547
C         -3.93349       -1.33683       -0.55082
H         -4.28616       -1.62083       -1.55179
H         -4.53502       -1.93162        0.15323
C         -4.17196        0.18118       -0.33289
H         -4.24330        0.38700        0.74418
H         -5.13836        0.49339       -0.75746
C          1.83515       -2.66487        0.03956
H          2.10827       -3.69288       -0.23699
H          0.74168       -2.67297        0.14329
C          3.22448        2.29637       -1.04584
H          4.25610        2.67107       -1.10166
H          2.84333        2.35039       -2.07370
C         -2.01494       -2.85854       -1.32539
H         -2.27619       -2.61448       -2.36348
H         -0.92059       -2.94151       -1.31418
C         -2.81177        2.34708       -0.18760
H         -3.76219        2.89783       -0.15580
H         -2.56885        2.13397        0.86098
C          2.46100       -2.31240        1.38272
H          2.25208       -1.27936        1.65923
H          3.54571       -2.42515        1.37273
H          2.08178       -2.94651        2.18745
C          2.39927        3.18049       -0.12390
H          2.80430        3.17867        0.88979
H          1.37107        2.82559       -0.05172
H          2.36773        4.21751       -0.46548
C         -2.63850       -4.18679       -0.92366
H         -2.37211       -4.45220        0.10123
H         -2.31305       -5.00493       -1.57031
H         -3.72809       -4.14501       -0.97185
C         -1.73061        3.21319       -0.80985
H         -1.61728        4.16674       -0.28897
H         -0.76455        2.71133       -0.78057
H         -1.95068        3.43198       -1.85642
Cl        -1.76578        0.31528        2.24336
Pd        -0.01561        0.26503        0.83833
