111
-148.55309615
P         -2.63777        2.02029        0.41858
P          0.08887        0.42177        0.49658
C         -1.84355        1.67071        2.01306
C         -0.62273        1.03166        2.03440
C         -3.51547        3.65086        0.45309
C         -2.71174        4.75382       -0.20001
C         -2.44606        2.03664        3.20016
H         -3.41112        2.51532        3.18424
C         -1.81648        1.77013        4.40394
H         -2.28685        2.05608        5.33057
C         -0.58861        1.13669        4.42033
H         -0.10031        0.92685        5.35772
C          0.00824        0.76083        3.23051
H          0.95621        0.24576        3.22431
Pd        -1.06456        1.49148       -1.19659
Cl        -2.21476        2.75984       -2.64252
Cl         0.53193        0.88839       -2.65902
C         -4.85382        3.32167       -0.23178
C         -4.05326        0.89728        0.00876
H         -3.23680        5.71066       -0.15425
H         -1.74012        4.87597        0.28427
H         -2.52734        4.53293       -1.25119
H         -4.74819        3.49210       -1.31218
H         -5.63888        4.01674        0.10330
H         -3.86588        0.53253       -1.01012
C         -5.26935        1.84393        0.02285
C         -4.14052       -0.25655        0.98419
H         -3.68597        3.88498        1.51140
H         -5.76469        1.76783        1.00048
H         -6.01887        1.51532       -0.71291
H         -4.25952        0.10834        2.00608
H         -4.99044       -0.90574        0.76115
H         -3.23490       -0.86593        0.95762
C         -1.33905       -3.85225       -0.17195
C         -0.76331       -3.12088       -1.24199
C         -0.35441       -1.82168       -0.99965
C         -0.43238       -1.27531        0.25313
C         -0.88164       -2.01623        1.31428
C         -1.30874       -3.32209        1.14346
O         -1.98188       -5.09326       -0.42418
C         -0.61336       -3.69560       -2.65853
H          0.01644       -1.20040       -1.79579
H         -0.90987       -1.55214        2.28412
C         -1.76243       -4.12488        2.37242
C          4.62436        0.65207        0.22121
C          4.00147       -0.52257        0.72071
C          2.61820       -0.55348        0.78053
C          1.86989        0.54440        0.44472
C          2.47035        1.72227        0.08622
C          3.84977        1.82270        0.00194
O          5.99747        0.63049       -0.13433
C          4.76695       -1.76644        1.20251
H          2.10440       -1.45293        1.07602
H          1.84395        2.56599       -0.15027
C          4.45065        3.19948       -0.32803
C         -0.39022       -5.21814       -2.62008
C         -1.87111       -3.36326       -3.47552
C          0.61381       -3.07792       -3.36780
C         -0.98694       -3.67556        3.63203
C         -3.26181       -3.88833        2.60940
C         -1.48442       -5.62771        2.18764
C         -3.36570       -4.97400       -0.72993
H         -0.22089       -5.61486       -3.62079
H          0.47616       -5.46332       -2.00666
H         -1.25085       -5.73499       -2.20296
H         -1.78925       -3.74698       -4.49207
H         -2.76048       -3.79578       -3.02333
H         -2.01918       -2.28502       -3.53236
H          0.80202       -3.57524       -4.31895
H          0.46564       -2.02110       -3.58436
H          1.50825       -3.17961       -2.75369
H         -1.20952       -4.32766        4.47632
H          0.08826       -3.70902        3.45754
H         -1.25469       -2.66335        3.93160
H         -3.85074       -4.19794        1.74927
H         -3.61277       -4.44681        3.47677
H         -3.46233       -2.83181        2.78557
H         -2.06186       -6.03984        1.36393
H         -0.42976       -5.79936        1.97498
H         -1.74525       -6.18793        3.08520
H         -3.95083       -5.53717       -0.00310
H         -3.67123       -3.92703       -0.70987
H         -3.55910       -5.38989       -1.71858
C          6.21007        0.22790       -1.47730
C          6.26203       -1.48333        1.42968
C          4.18590       -2.23374        2.55576
C          4.60660       -2.89560        0.17070
C          4.20026        3.52202       -1.81068
C          3.77296        4.27865        0.54517
C          5.95930        3.26742       -0.03341
H          6.39480       -0.63970        2.10608
H          6.76454       -2.34847        1.86163
H          6.76486       -1.24389        0.49580
H          3.15381       -2.56715        2.46070
H          4.76007       -3.06830        2.95742
H          4.21324       -1.42495        3.28545
H          5.01866       -2.60831       -0.79467
H          5.11960       -3.79908        0.49926
H          3.55545       -3.14166        0.02250
H          3.13441        3.51304       -2.03656
H          4.58989        4.50694       -2.06649
H          4.68132        2.79236       -2.45895
H          4.23451        5.25291        0.38619
H          2.71403        4.38085        0.31419
H          3.86560        4.03141        1.60235
H          6.34348        4.27644       -0.18117
H          6.51943        2.60386       -0.68781
H          6.16359        2.97259        0.99528
H          5.82769       -0.77975       -1.63083
H          5.69435        0.90459       -2.15651
H          7.27856        0.24490       -1.69309
