111
-148.55467507
P         -2.41188        2.35120       -0.10159
P         -0.00343        0.37258        0.51889
C         -1.75827        2.22545        1.58204
C         -0.74593        1.33134        1.85452
C         -2.58244        4.10809       -0.64867
C         -1.82839        4.32353       -1.94295
C         -2.28913        2.99615        2.59640
H         -3.06706        3.70771        2.37230
C         -1.81802        2.85197        3.88995
H         -2.23348        3.45179        4.68319
C         -0.82279        1.93434        4.16621
H         -0.46166        1.81530        5.17448
C         -0.28625        1.17050        3.14521
H          0.48795        0.44620        3.34580
Pd        -1.17400        0.91695       -1.41019
Cl        -2.65557        1.11041       -3.08979
Cl        -0.04510       -0.66121       -2.55617
C         -4.10917        4.29203       -0.77730
C         -4.17034        1.78557       -0.25422
H         -2.21764        3.66967       -2.72604
H         -1.92116        5.35379       -2.29519
H         -0.76502        4.09967       -1.82625
H         -4.32580        5.00489       -1.58622
H         -4.50954        4.75265        0.13774
H         -4.15172        0.86386       -0.85173
C         -4.83361        2.94012       -1.03189
C         -4.79566        1.52666        1.10049
H         -2.16879        4.73705        0.15129
H         -5.89562        3.00948       -0.75448
H         -4.82114        2.71864       -2.10930
H         -4.20410        0.81822        1.68457
H         -4.86267        2.45055        1.67682
H         -5.80827        1.12747        1.00537
C         -1.15502       -4.02504        0.69548
C          0.20210       -3.65823        0.88561
C          0.53290       -2.31468        0.83057
C         -0.43317       -1.35670        0.67132
C         -1.75835       -1.69760        0.59409
C         -2.15757       -3.02363        0.63206
O         -1.50277       -5.39357        0.53960
C          1.31385       -4.69552        1.10977
H          1.55854       -1.99704        0.89464
H         -2.47989       -0.90693        0.47866
C         -3.65596       -3.35311        0.54640
C          4.49268        1.05371        0.07793
C          3.80973        0.17802       -0.80293
C          2.44103        0.03700       -0.65297
C          1.76586        0.64759        0.37108
C          2.44152        1.41481        1.28513
C          3.80937        1.60976        1.18902
O          5.84558        1.40634       -0.17267
C          4.51621       -0.59547       -1.92721
H          1.86872       -0.53466       -1.36154
H          1.88061        1.87770        2.07631
C          4.52841        2.43534        2.26797
C          2.48571       -4.07977        1.90810
C          0.79287       -5.89227        1.92600
C          1.84966       -5.17299       -0.24848
C         -4.50194       -2.21975        1.16870
C         -4.05647       -3.50041       -0.92992
C         -3.98954       -4.63889        1.32412
C         -1.48768       -5.84935       -0.80757
H          3.21293       -4.84479        2.17924
H          3.01683       -3.32629        1.32815
H          2.12817       -3.61767        2.82792
H          1.59303       -6.60160        2.13588
H          0.37838       -5.55722        2.87623
H          0.01130       -6.42670        1.39154
H          1.07329       -5.66237       -0.83039
H          2.21924       -4.33205       -0.83375
H          2.66787       -5.88092       -0.11868
H         -4.46342       -1.31625        0.56303
H         -5.54964       -2.51143        1.23854
H         -4.15295       -1.97963        2.17270
H         -3.85197       -2.58023       -1.47708
H         -3.50068       -4.29989       -1.41304
H         -5.11895       -3.72201       -1.02654
H         -3.67257       -4.55148        2.36280
H         -5.06096       -4.83736        1.31183
H         -3.49069       -5.50434        0.89588
H         -2.48621       -6.17687       -1.09600
H         -1.15847       -5.05193       -1.47514
H         -0.81459       -6.70195       -0.89617
C          6.00046        2.53610       -1.02264
C          5.97511       -0.91672       -1.55503
C          3.81185       -1.94864       -2.17624
C          4.46685        0.23166       -3.22051
C          5.96287        1.92237        2.49104
C          4.55474        3.91228        1.84675
C          3.79407        2.32328        3.62365
H          6.56503       -0.01133       -1.43894
H          6.01876       -1.46594       -0.61507
H          6.45141       -1.52338       -2.32484
H          4.37525       -2.55400       -2.88586
H          3.72715       -2.51278       -1.24828
H          2.81362       -1.81688       -2.59054
H          4.95377       -0.29572       -4.04032
H          3.43536        0.42906       -3.51151
H          4.96411        1.19065       -3.09417
H          6.57158        2.04683        1.59878
H          6.45137        2.46364        3.30090
H          5.95632        0.86319        2.74618
H          3.54247        4.29213        1.71032
H          5.04659        4.52484        2.60196
H          5.08755        4.04506        0.90835
H          3.64377        1.27949        3.89827
H          2.82298        2.81561        3.59842
H          4.37176        2.79771        4.41664
H          5.02662        2.95274       -1.28287
H          6.59703        3.29432       -0.51546
H          6.52412        2.24329       -1.93239
