111
-148.55481345
P         -2.23140        2.19759        1.01918
P          0.07740        0.10177        0.49600
C         -1.24779        1.58809        2.40895
C         -0.24940        0.66913        2.17528
C         -2.35949        4.04164        1.04755
C         -1.48165        4.65933       -0.01937
C         -1.48850        2.03565        3.69182
H         -2.27121        2.75614        3.86584
C         -0.72484        1.55493        4.74164
H         -0.91126        1.90249        5.74466
C          0.27477        0.63030        4.50540
H          0.86909        0.25612        5.32266
C          0.51349        0.18541        3.21710
H          1.29144       -0.53387        3.01351
Pd        -1.36477        1.27101       -0.90093
Cl        -2.98383        2.28498       -2.07095
Cl        -0.39599        0.19660       -2.61644
C         -3.86822        4.28529        0.85812
C         -4.02311        1.74208        1.12502
H         -1.55654        5.74931       -0.01701
H         -0.43233        4.39011        0.12497
H         -1.77549        4.31044       -1.01109
H         -4.07036        4.42349       -0.21302
H         -4.16830        5.22838        1.33974
H         -4.29518        1.36468        0.13024
C         -4.71238        3.09342        1.39253
C         -4.27108        0.68951        2.18504
H         -2.04043        4.36047        2.04835
H         -4.86089        3.20685        2.47513
H         -5.72208        3.10062        0.95471
H         -3.68262       -0.21111        1.99768
H         -3.99096        1.05970        3.17254
H         -5.32489        0.40437        2.22630
C         -1.19540       -4.25312        0.10054
C         -2.14846       -3.20825       -0.00249
C         -1.70940       -1.90419        0.15273
C         -0.37907       -1.61907        0.31844
C          0.55841       -2.61837        0.32681
C          0.18715       -3.94474        0.17809
O         -1.62820       -5.60475        0.15864
C         -3.63985       -3.46619       -0.26915
H         -2.40848       -1.08589        0.14517
H          1.59106       -2.34765        0.45960
C          1.27822       -5.02575        0.11866
C          4.29736        1.22695       -0.80732
C          3.61647        2.00186        0.16590
C          2.35063        1.59735        0.55686
C          1.73935        0.51742       -0.02644
C          2.34726       -0.16283       -1.04868
C          3.61351        0.18663       -1.48674
O          5.66801        1.47343       -1.08731
C          4.22917        3.25686        0.80744
H          1.81853        2.12533        1.32953
H          1.80441       -0.96418       -1.51810
C          4.22908       -0.55695       -2.68268
C         -4.27200       -2.27443       -1.02540
C         -3.83530       -4.71176       -1.15243
C         -4.37498       -3.64354        1.06779
C          2.57702       -4.45544       -0.49482
C          1.58266       -5.52075        1.54044
C          0.84433       -6.20391       -0.77256
C         -1.88572       -6.07573        1.47543
H         -3.69529       -2.03118       -1.91744
H         -5.28895       -2.50982       -1.33813
H         -4.32900       -1.38409       -0.40127
H         -4.88731       -4.85917       -1.39526
H         -3.28240       -4.61008       -2.08567
H         -3.48380       -5.61130       -0.65320
H         -4.26371       -2.75592        1.68991
H         -5.43962       -3.81254        0.90832
H         -3.98059       -4.48945        1.62552
H          3.30953       -5.24620       -0.65528
H          2.37521       -3.98636       -1.45736
H          3.04127       -3.71788        0.15804
H          2.36202       -6.28230        1.53027
H          1.92190       -4.69857        2.17014
H          0.69889       -5.95057        2.00579
H          1.64431       -6.93745       -0.86964
H         -0.02201       -6.71543       -0.36075
H          0.58218       -5.85345       -1.77029
H         -1.70424       -5.28538        2.20487
H         -2.92113       -6.40799        1.54857
H         -1.23980       -6.92627        1.69248
C          6.56991        0.74913       -0.26041
C          4.98650        2.85692        2.08263
C          5.17598        3.97617       -0.17052
C          3.12359        4.26914        1.18654
C          5.06966       -1.73810       -2.17572
C          3.12421       -1.10404       -3.61521
C          5.10163        0.39078       -3.52563
H          5.78491        2.15225        1.86258
H          5.42914        3.72873        2.56374
H          4.31397        2.38217        2.79678
H          6.03113        3.35536       -0.42518
H          4.65600        4.22323       -1.09549
H          5.55761        4.90080        0.26178
H          2.48417        4.48278        0.33038
H          2.49844        3.90029        1.99836
H          3.55925        5.21016        1.52161
H          5.88801       -1.39851       -1.54601
H          4.45906       -2.42061       -1.58609
H          5.49622       -2.29889       -3.00701
H          2.55951       -1.90645       -3.14297
H          2.42797       -0.31442       -3.89668
H          3.55545       -1.51167       -4.52914
H          4.52263        1.25252       -3.85601
H          5.49080       -0.11572       -4.40848
H          5.95146        0.75842       -2.95545
H          7.25111        0.17125       -0.88491
H          7.16219        1.44407        0.33435
H          6.02330        0.07725        0.40252
