171
-217.84237537
P         -1.65937        0.34001       -0.36012
P          1.64185       -0.38254       -0.31637
C         -0.93019        1.29501       -1.68898
C          0.93207       -1.38679       -1.61897
C         -0.10240        0.67049       -2.61517
C          0.52082        1.46110       -3.59945
C          0.26173        2.82131       -3.64296
C         -0.58745        3.41392       -2.73263
C         -1.17825        2.64445       -1.75039
C          1.17849       -2.73801       -1.61425
C          0.60218       -3.55099       -2.56977
C         -0.23588       -3.00015       -3.51587
C         -0.49892       -1.64021       -3.53444
C          0.11412       -0.80491       -2.58105
Cl         1.55457        0.51374        2.81945
Cl        -1.57238       -0.33468        2.87771
C         -1.41579       -1.09011       -4.56902
C          1.43682        0.85801       -4.60491
H         -0.78678        4.47190       -2.78357
H         -1.84188        3.09819       -1.03250
H          1.82623       -3.15903       -0.86239
H          0.80161       -4.61018       -2.57043
H          0.73434        3.41840       -4.40457
H         -0.69907       -3.63064       -4.25608
C         -4.07410       -3.15752       -1.89543
C         -3.02622       -3.40465       -1.01666
C         -2.29168       -2.31845       -0.55660
C         -2.59517       -1.05007       -0.98278
C         -3.62914       -0.82161       -1.85716
C         -4.39979       -1.87732       -2.32843
H         -4.65658       -3.99156       -2.23859
H         -1.47854       -2.44890        0.13663
H         -3.84333        0.19008       -2.16033
C         -4.21674        2.77927        2.49153
C         -4.78203        1.68239        1.85178
C         -3.99437        0.97906        0.94993
C         -2.69900        1.36042        0.70227
C         -2.15567        2.44339        1.34838
C         -2.90309        3.17192        2.26415
H         -4.80921        3.33280        3.19398
H         -4.38744        0.10845        0.45418
H         -1.12803        2.70440        1.15921
C          4.27655       -2.71288        2.55519
C          2.94516       -3.08479        2.41802
C          2.16412       -2.38467        1.50690
C          2.70260       -1.36003        0.76719
C          4.02166       -1.00909        0.91633
C          4.83716       -1.67483        1.82134
H          4.88223       -3.23898        3.26866
H          1.11957       -2.61563        1.38737
H          4.41433       -0.19356        0.33523
C          3.99473        3.16300       -1.84186
C          2.92726        3.38823       -0.98141
C          2.21102        2.28651       -0.52964
C          2.54366        1.02470       -0.95395
C          3.59137        0.81914       -1.81808
C          4.35391        1.88985       -2.26851
H          4.56697        4.00864       -2.17359
H          1.39199        2.39955        0.15951
H          3.82526       -0.18650       -2.12651
Pd        -0.01963       -0.01132        1.28705
C         -2.48240       -5.73205       -1.78900
C         -2.73587       -4.84045       -0.55919
C         -3.94640       -5.37308        0.22845
C         -1.49455       -4.90229        0.35028
H         -3.35695       -5.77536       -2.43679
H         -1.64977       -5.34853       -2.37717
H         -2.24117       -6.75142       -1.48819
H         -3.76557       -6.38755        0.58334
H         -4.14871       -4.74292        1.09439
H         -4.84339       -5.38977       -0.38965
H         -1.28517       -5.92878        0.65094
H         -0.61363       -4.52134       -0.16535
H         -1.64567       -4.31727        1.25718
C         -5.11222       -0.88499       -4.52980
C         -5.59518       -1.59456       -3.25181
C         -6.59706       -0.69009       -2.51175
C         -6.31940       -2.89152       -3.66160
H         -5.95280       -0.63840       -5.17827
H         -4.58913        0.04167       -4.29683
H         -4.43465       -1.52453       -5.09357
H         -6.93158       -1.16267       -1.58842
H         -6.14676        0.26878       -2.25792
H         -7.47466       -0.49289       -3.12716
H         -5.64763       -3.56385       -4.19507
H         -6.71305       -3.41390       -2.78986
H         -7.15932       -2.67312       -4.32104
C         -6.17959       -0.25029        2.62324
C         -6.21598        1.20842        2.12832
C         -7.03554        1.29423        0.82913
C         -6.90750        2.06993        3.20240
H         -5.56953       -0.33544        3.52224
H         -7.18176       -0.60794        2.85872
H         -5.75809       -0.91521        1.87029
H         -8.06308        0.96943        0.99182
H         -7.05845        2.31715        0.45382
H         -6.60422        0.66336        0.05419
H         -7.91956        1.71233        3.39178
H         -6.36261        2.03214        4.14551
H         -6.98050        3.10997        2.88504
C         -3.16828        4.92228        4.09573
C         -2.25326        4.35655        2.99251
C         -1.96414        5.47155        1.97307
C         -0.93814        3.89181        3.64973
H         -3.41725        4.15470        4.82831
H         -2.67606        5.73820        4.62488
H         -4.09433        5.31562        3.67708
H         -2.88873        5.82727        1.51880
H         -1.47149        6.31961        2.44830
H         -1.32004        5.11185        1.17279
H         -0.47175        4.70368        4.20728
H         -1.12403        3.06963        4.34042
H         -0.21977        3.54497        2.90895
C          3.19372       -5.47916        3.13987
C          2.36520       -4.19200        3.30908
C          0.90284       -4.50653        2.94167
C          2.41183       -3.72822        4.77598
H          2.78009       -6.28994        3.73937
H          3.19855       -5.79879        2.09791
H          4.22730       -5.33215        3.45035
H          0.50964       -5.30911        3.56544
H          0.26408       -3.63540        3.08652
H          0.82704       -4.82640        1.90313
H          1.84252       -2.80772        4.90464
H          1.98949       -4.48333        5.43863
H          3.43506       -3.53524        5.09627
C          6.97112       -1.93337        3.18534
C          6.30592       -1.25337        1.97284
C          6.38829        0.27327        2.17312
C          7.07237       -1.65110        0.70027
H          7.99719       -1.58679        3.30810
H          6.43153       -1.70602        4.10460
H          7.00509       -3.01553        3.06195
H          5.79631        0.57981        3.03523
H          7.41782        0.58911        2.34063
H          6.01721        0.81302        1.30296
H          8.11871       -1.35276        0.76314
H          7.03544       -2.72976        0.54891
H          6.63880       -1.17712       -0.17864
C          1.32616        4.85557        0.33557
C          2.59995        4.81731       -0.52853
C          2.37506        5.71085       -1.76281
C          3.77397        5.36391        0.30301
H          1.08466        5.87825        0.62480
H          0.47502        4.45369       -0.21287
H          1.45531        4.27677        1.24957
H          2.10022        6.72294       -1.46624
H          3.27276        5.77752       -2.37595
H          1.57436        5.31282       -2.38492
H          3.56664        6.37464        0.65405
H          3.95409        4.73365        1.17376
H          4.69186        5.39441       -0.28310
C          6.52735        0.65466       -2.45819
C          5.57308        1.63303       -3.16804
C          6.34620        2.93232       -3.46633
C          5.11256        1.02235       -4.50289
H          6.05173       -0.31185       -2.29764
H          7.42665        0.48665       -3.05050
H          6.83058        1.04853       -1.48826
H          6.70021        3.39749       -2.54645
H          7.21685        2.72932       -4.08985
H          5.72087        3.64843       -3.99915
H          4.55729        0.09858       -4.34423
H          4.47016        1.71714       -5.04232
H          5.96597        0.79355       -5.14104
H         -0.89252       -0.93399       -5.51311
H          2.23692        1.55200       -4.86304
H         -1.84362       -0.13692       -4.25529
H         -2.24056       -1.77859       -4.75503
H          0.90206        0.61073       -5.52266
H          1.89816       -0.05428       -4.22415
