58
-89.86493215
P          1.69519        0.28953        0.75127
C          2.94816        1.47390        0.25772
C          2.59960        2.79532        0.09694
C          3.55637        3.71376       -0.29756
C          4.85373        3.30010       -0.52822
C          5.19735        1.97222       -0.36683
C          4.23878        1.05609        0.02716
H          4.48888        0.01461        0.14975
H          1.58026        3.10145        0.27324
C          2.30554       -1.39460        0.58135
C          2.37489       -1.94034       -0.68011
C          2.80175       -3.24360       -0.85063
C          3.16294       -3.99485        0.24954
C          3.10518       -3.44236        1.51377
C          2.67781       -2.13728        1.67944
H          2.63894       -1.69795        2.66263
H          2.09343       -1.33640       -1.52713
C          1.24362        0.66827        2.49182
C          0.14732       -0.22079        3.06129
C         -1.25424        0.20719        2.66620
P         -1.68914        0.04198        0.88433
C         -1.93437       -1.68653        0.44169
C         -0.86438       -2.54508        0.54804
C         -1.00219       -3.87406        0.19278
C         -2.21585       -4.33633       -0.27477
C         -3.28430       -3.47003       -0.39752
C         -3.14006       -2.14106       -0.04259
H         -3.95943       -1.45273       -0.16325
H          0.09205       -2.16250        0.85795
C         -3.18709        1.02220        0.68675
C         -4.35378        0.59134        1.27849
C         -5.50533        1.35003        1.16676
C         -5.47813        2.54359        0.47332
C         -4.30189        2.98320       -0.10053
C         -3.15257        2.22231        0.01376
H         -2.22751        2.55778       -0.42688
H         -4.35730       -0.33150        1.83695
Pd        -0.07163        0.49670       -0.73030
Cl         1.43943        0.64934       -2.39075
Cl        -1.79755        0.67491       -2.16172
H         -2.01002       -0.36518        3.20971
H         -1.41377        1.25649        2.92306
H          0.31762       -1.26216        2.76381
H          0.22033       -0.22556        4.16012
H          2.17159        0.57538        3.06151
H          0.95352        1.71947        2.53879
H          3.28747        4.74907       -0.42820
H          6.20859        1.64866       -0.55108
H          2.85022       -3.67040       -1.83889
H          3.39261       -4.02748        2.37190
H         -0.15900       -4.54077        0.26839
H         -4.22807       -3.82674       -0.77622
H         -6.42066        1.01059        1.62314
H         -4.27815        3.91684       -0.63816
H          5.59891        4.01456       -0.83803
H          3.49466       -5.01231        0.12122
H         -2.32627       -5.37122       -0.55495
H         -6.37486        3.13484        0.38357
