87
-129.18039812
P         -1.78139       -0.34702        0.27108
P          1.53681        0.41484       -0.10050
C         -1.53723        1.08045       -0.81656
C          1.13576       -0.50098       -1.59486
C         -0.72482        1.10625       -1.94811
C         -0.58372        2.31727       -2.65285
C         -1.25826        3.44305       -2.21289
C         -2.04965        3.40222       -1.08621
C         -2.18092        2.21762       -0.38772
C          1.90844       -1.57253       -1.96946
C          1.61147       -2.26618       -3.12614
C          0.53726       -1.87890       -3.90051
C         -0.25691       -0.80308       -3.53788
C          0.05303       -0.09050       -2.36265
Cl         1.54668        1.25074        2.92962
Cl        -1.10124       -0.62836        3.43958
H         -2.55833        4.28969       -0.74718
H         -2.78505        2.17633        0.50648
H          2.74817       -1.86315       -1.36037
H          2.21480       -3.10941       -3.41987
H         -1.14641        4.36479       -2.75834
H          0.29990       -2.42150       -4.79980
C         -0.79657       -4.47221       -1.36787
C         -0.23709       -4.06324       -0.16535
C         -0.56151       -2.80262        0.32080
C         -1.40702       -1.97695       -0.38467
C         -1.98657       -2.40566       -1.55512
C         -1.67649       -3.65750       -2.05261
H         -0.54187       -5.44173       -1.76083
C          0.71448       -4.94054        0.56836
H         -0.18331       -2.48163        1.27625
H         -2.66617       -1.75479       -2.08078
H         -2.11339       -3.99182       -2.97927
C         -6.18606       -0.36054        1.42537
C         -5.23166       -0.53050        2.40852
C         -3.89206       -0.52178        2.07466
C         -3.51256       -0.34633        0.76601
C         -4.46181       -0.17842       -0.21646
C         -5.81578       -0.17382        0.10069
H         -7.23200       -0.37224        1.68079
H         -5.53036       -0.67072        3.43449
H         -3.13477       -0.64814        2.82882
H         -4.15013       -0.04133       -1.23902
C         -6.84254       -0.01376       -0.96475
C          5.11585       -1.50705        1.96388
C          5.20647       -0.21306        1.49091
C          4.12225        0.36743        0.86063
C          2.95983       -0.34993        0.70240
C          2.86755       -1.63884        1.17363
C          3.94329       -2.23574        1.81902
H          5.95926       -1.96166        2.45504
H          6.11925        0.34592        1.61659
H          4.17534        1.38057        0.49691
H          1.95453       -2.19099        1.03597
C          3.84057       -3.63391        2.31827
C          2.53143        4.70771       -1.20546
C          1.75775        4.45624       -0.08953
C          1.46140        3.15379        0.26374
C          1.93438        2.11676       -0.50476
C          2.71375        2.36189       -1.61140
C          3.01833        3.66655       -1.98372
H          2.76813        5.72148       -1.48030
H          1.38887        5.27329        0.50852
H          0.87735        2.93981        1.14358
H          3.07923        1.53382       -2.19656
C          3.87188        3.93802       -3.17218
Pd         0.02839        0.16532        1.68008
C          0.27826        2.41992       -3.86360
C         -1.41805       -0.42810       -4.39117
H          0.84981        3.34900       -3.85581
H          0.99180        1.59728       -3.91860
H         -0.32465        2.40590       -4.77229
H         -1.08441        0.04276       -5.31668
H         -2.00596       -1.30808       -4.65618
H         -2.08217        0.26869       -3.87834
H          0.72321       -4.70742        1.63397
H          0.44201       -5.99148        0.46208
H          1.72828       -4.81501        0.18573
H         -7.74061        0.46930       -0.57706
H         -6.46536        0.59865       -1.78514
H         -7.13080       -0.98330       -1.37336
H          4.61336       -3.84840        3.05768
H          2.87345       -3.80805        2.79200
H          3.95106       -4.34722        1.50038
H          3.81892        3.11898       -3.89103
H          3.55510        4.84818       -3.68357
H          4.91543        4.06130       -2.87925
