171
-217.84436318
P         -1.59658        0.45351       -0.34321
P          1.55226       -0.35181       -0.34568
C         -0.87366        1.44784       -1.65407
C          0.84147       -1.26966       -1.71346
C         -0.06996        0.87094       -2.63189
C          0.57950        1.71289       -3.55596
C          0.36707        3.08005       -3.49250
C         -0.45845        3.62897       -2.53436
C         -1.06882        2.80687       -1.60794
C          1.01847       -2.63053       -1.75942
C          0.45726       -3.36795       -2.78329
C         -0.28672       -2.73162       -3.75446
C         -0.47682       -1.35956       -3.72494
C          0.10683       -0.60627       -2.68871
Cl         1.59701        0.44856        2.85849
Cl        -1.52343       -0.27874        2.95117
C         -1.26470       -0.69755       -4.80041
C          1.51584        1.17405       -4.58073
H         -0.61682        4.69443       -2.49895
H         -1.69697        3.22854       -0.83994
H          1.60125       -3.11747       -0.99443
H          0.60255       -4.43504       -2.82423
H          0.86648        3.71808       -4.20213
H         -0.72865       -3.30364       -4.55277
C         -3.82691       -3.30842       -1.50835
C         -2.84574       -3.37661       -0.52668
C         -2.15063       -2.21415       -0.22262
C         -2.42254       -1.04297       -0.88507
C         -3.39420       -0.99174       -1.85513
C         -4.12934       -2.12700       -2.17671
H         -4.38135       -4.19544       -1.74604
H         -1.40915       -2.21465        0.55800
H         -3.59901       -0.05250       -2.34124
C         -4.46282        2.78978        2.29248
C         -4.96328        1.78416        1.47482
C         -4.06753        1.11295        0.65412
C         -2.73207        1.43117        0.66050
C         -2.25523        2.42917        1.47487
C         -3.11549        3.12839        2.31249
H         -5.13140        3.31670        2.94681
H         -4.41315        0.32004        0.01460
H         -1.19952        2.63844        1.47330
C          4.23959       -2.99018        2.19693
C          2.86868       -3.22064        2.21376
C          2.06736       -2.42798        1.40174
C          2.61460       -1.42308        0.64322
C          3.96715       -1.19231        0.66436
C          4.81114       -1.97622        1.43747
H          4.87637       -3.61548        2.79224
H          1.00287       -2.57967        1.36929
H          4.37170       -0.38590        0.07903
C          4.02595        3.18536       -1.68532
C          3.00069        3.39865       -0.77239
C          2.24447        2.30247       -0.37703
C          2.49690        1.06162       -0.90569
C          3.49741        0.87090       -1.82696
C          4.29288        1.93636       -2.23172
H          4.64923        4.01514       -1.96289
H          1.45820        2.40370        0.35069
H          3.65867       -0.12100       -2.21434
Pd        -0.01040        0.08254        1.33159
C         -3.43829       -5.83141       -0.18463
C         -2.54168       -4.65969        0.25902
C         -2.78461       -4.40082        1.75825
C         -1.07362       -5.05761        0.02949
H         -3.20711       -6.73135        0.38521
H         -4.49171       -5.60194       -0.02517
H         -3.28927       -6.06203       -1.23934
H         -2.56985       -5.29125        2.34874
H         -2.15524       -3.59366        2.12998
H         -3.82223       -4.11905        1.93591
H         -0.81761       -5.95117        0.59836
H         -0.89322       -5.26554       -1.02453
H         -0.39779       -4.25977        0.33171
C         -6.02457       -3.37100       -3.34214
C         -5.27712       -2.03119       -3.19445
C         -4.71559       -1.63483       -4.56948
C         -6.28393       -0.96542       -2.72286
H         -6.84228       -3.28027       -4.05709
H         -5.35884       -4.15482       -3.70299
H         -6.45236       -3.68840       -2.39128
H         -4.21398       -0.66910       -4.52538
H         -3.99922       -2.37796       -4.91827
H         -5.51198       -1.56237       -5.31002
H         -7.13081       -0.89873       -3.40558
H         -6.66743       -1.20963       -1.73240
H         -5.82078        0.01904       -2.67260
C         -7.24991        2.12746        2.54107
C         -6.44810        1.39478        1.44815
C         -6.58506       -0.12259        1.68326
C         -7.03659        1.76225        0.07493
H         -8.29430        1.81586        2.52855
H         -6.85065        1.90884        3.53135
H         -7.22848        3.20636        2.38909
H         -7.63320       -0.42016        1.70789
H         -6.09813       -0.69566        0.89537
H         -6.13065       -0.40656        2.63221
H         -8.08889        1.48552        0.01268
H         -6.95668        2.83431       -0.10414
H         -6.50640        1.25111       -0.72700
C         -3.37193        5.51665        3.04950
C         -2.61170        4.19926        3.29017
C         -1.10597        4.46876        3.10903
C         -2.85013        3.71252        4.73091
H         -3.01049        6.30165        3.71356
H         -3.23780        5.85554        2.02236
H         -4.44012        5.39861        3.22675
H         -0.51869        3.57165        3.30446
H         -0.89487        4.81039        2.09659
H         -0.76424        5.24152        3.79741
H         -2.48544        4.44059        5.45517
H         -3.91027        3.55101        4.92276
H         -2.33149        2.77022        4.90710
C          2.17069       -5.61880        2.19999
C          2.25262       -4.34608        3.05806
C          0.83846       -3.95272        3.53403
C          3.10683       -4.62949        4.31046
H          1.71181       -6.43705        2.75467
H          1.57924       -5.44317        1.30228
H          3.16431       -5.93721        1.88517
H          0.85677       -2.99270        4.04969
H          0.14294       -3.87674        2.70089
H          0.43762       -4.69728        4.22152
H          2.61343       -5.35230        4.96014
H          4.07906       -5.04426        4.04759
H          3.26591       -3.71674        4.88439
C          6.85742       -1.88487       -0.00532
C          6.31898       -1.68772        1.42373
C          7.08897       -2.62534        2.37304
C          6.56089       -0.23341        1.87148
H          6.36724       -1.21199       -0.70761
H          7.92900       -1.69114       -0.04962
H          6.68358       -2.90571       -0.34496
H          6.96919       -3.66767        2.07822
H          8.15523       -2.39979        2.35806
H          6.74228       -2.51349        3.40022
H          7.62617       -0.00481        1.89683
H          6.08535        0.47555        1.19471
H          6.15493       -0.06608        2.86887
C          3.97507        5.21531        0.64728
C          2.76101        4.80323       -0.20368
C          1.50120        4.84459        0.68160
C          2.57188        5.80261       -1.36054
H          3.83190        6.20607        1.07819
H          4.12886        4.51004        1.46386
H          4.88557        5.23796        0.04936
H          1.60933        4.19260        1.54808
H          1.31993        5.85410        1.05027
H          0.62104        4.53236        0.12009
H          3.46365        5.86641       -1.98255
H          1.74118        5.50083       -1.99739
H          2.36021        6.80217       -0.98123
C          5.44059        2.80013       -4.30429
C          5.48779        1.74947       -3.17773
C          5.48587        0.34943       -3.82301
C          6.78716        1.91890       -2.37018
H          4.50915        2.72892       -4.86433
H          5.51871        3.81271       -3.91120
H          6.26371        2.65545       -5.00390
H          5.59691       -0.43199       -3.07190
H          4.56104        0.17171       -4.37116
H          6.31297        0.24626       -4.52527
H          6.84565        2.91231       -1.92631
H          6.83689        1.18966       -1.56193
H          7.66284        1.78149       -3.00425
H         -1.96689       -1.39354       -5.25936
H          2.47665        1.68607       -4.52661
H         -0.61141       -0.32477       -5.58982
H         -1.83496        0.14558       -4.40774
H          1.11884        1.31567       -5.58694
H          1.70383        0.10958       -4.43562
