111
-148.55290976
P         -2.17597        2.12276        1.47092
P          0.18038        0.19429        0.59036
C         -1.04023        1.46303        2.71750
C         -0.02401        0.61711        2.33012
C         -2.37641        3.95478        1.63798
C         -1.90928        4.66086        0.38354
C         -1.18056        1.80817        4.04638
H         -1.96343        2.48819        4.33984
C         -0.31067        1.28758        4.98885
H         -0.42130        1.55403        6.02729
C          0.69919        0.42860        4.59972
H          1.37645        0.02287        5.33313
C          0.84466        0.09459        3.26504
H          1.63313       -0.56756        2.94423
Pd        -1.42237        1.39310       -0.58270
Cl        -3.25436        2.23507       -1.55868
Cl        -0.45280        0.64151       -2.46433
C         -3.88246        4.12681        1.93214
C         -3.93450        1.58139        1.66827
H         -2.49906        4.34311       -0.47809
H         -2.01191        5.74510        0.47149
H         -0.86186        4.43663        0.16683
H         -4.24689        5.04445        1.44819
H         -4.03846        4.28107        3.00985
H         -4.13586        0.86656        0.85886
C         -4.71165        2.89741        1.46358
C         -4.17396        0.94464        3.02147
H         -1.76630        4.26031        2.49890
H         -5.67112        2.84730        1.99920
H         -4.96859        3.01587        0.40051
H         -4.03805        1.67598        3.81973
H         -5.19088        0.55421        3.10705
H         -3.47677        0.12497        3.20782
C         -1.29846       -4.01548       -0.31963
C         -2.08554       -3.14267        0.47558
C         -1.58091       -1.88467        0.76680
C         -0.39095       -1.46368        0.23083
C          0.30221       -2.25289       -0.64938
C         -0.13820       -3.52485       -0.97003
O         -1.64643       -5.38749       -0.43622
C         -3.46283       -3.54508        1.02576
H         -2.11451       -1.21026        1.41418
H          1.19665       -1.85569       -1.09505
C          0.65334       -4.35704       -1.99038
C          4.37093        0.94220       -1.03279
C          4.12252       -0.20832       -0.24150
C          2.83947       -0.40896        0.24007
C          1.84659        0.50892        0.01319
C          2.11184        1.67713       -0.65203
C          3.37332        1.94228       -1.15827
O          5.60240        1.07457       -1.72806
C          5.20724       -1.25423        0.06092
H          2.59237       -1.30275        0.78637
H          1.30656        2.37738       -0.79227
C          3.62164        3.27965       -1.87291
C         -4.39428       -2.31515        1.09791
C         -4.15542       -4.57145        0.11035
C         -3.29494       -4.12436        2.43837
C         -0.27894       -5.29201       -2.78191
C          1.35115       -3.43809       -3.01935
C          1.72465       -5.17671       -1.25562
C         -1.09022       -6.21071        0.58104
H         -4.43353       -1.80143        0.13764
H         -5.40919       -2.61089        1.36256
H         -4.06113       -1.60685        1.85264
H         -4.23098       -4.18805       -0.90664
H         -3.60396       -5.50739        0.07336
H         -5.16129       -4.79639        0.46405
H         -2.84172       -3.39043        3.10443
H         -4.25768       -4.41326        2.85918
H         -2.65372       -5.00299        2.42921
H          0.27047       -5.83487       -3.55060
H         -0.74791       -6.02666       -2.13176
H         -1.07025       -4.72237       -3.26803
H          2.14822       -2.85276       -2.56379
H          1.80281       -4.02484       -3.81887
H          0.63669       -2.75030       -3.47096
H          1.27360       -5.86953       -0.54912
H          2.32399       -5.75529       -1.95810
H          2.39450       -4.52342       -0.69721
H         -0.51031       -7.01237        0.12381
H         -0.44551       -5.62302        1.23577
H         -1.89034       -6.66019        1.16873
C          5.59059        0.51964       -3.03752
C          4.93558       -1.94714        1.41561
C          5.20536       -2.32307       -1.04265
C          6.59651       -0.59891        0.16337
C          2.72916        4.39163       -1.27518
C          5.08142        3.73829       -1.70442
C          3.27996        3.12749       -3.36302
H          4.80471       -1.21089        2.20826
H          4.04538       -2.57330        1.37715
H          5.76818       -2.59319        1.69320
H          5.96056       -3.08471       -0.85030
H          4.23580       -2.81649       -1.09819
H          5.40954       -1.88576       -2.01684
H          7.35528       -1.33015        0.44091
H          6.89757       -0.15646       -0.78289
H          6.59414        0.18973        0.91503
H          2.99548        5.36458       -1.68754
H          1.67610        4.22826       -1.49939
H          2.84651        4.44332       -0.19306
H          5.23991        4.71612       -2.15852
H          5.34197        3.80811       -0.64886
H          5.77319        3.04277       -2.17271
H          2.23980        2.82813       -3.49015
H          3.90095        2.37005       -3.83496
H          3.42947        4.06597       -3.89616
H          4.61498        0.08404       -3.25730
H          5.81422        1.29784       -3.76701
H          6.35865       -0.24963       -3.11565
