111
-148.55502828
P         -1.69191        2.75263       -0.26197
P         -0.52945       -0.09237        0.46746
C         -1.75617        2.16437        1.45487
C         -1.31390        0.89392        1.75870
C         -0.52221        4.17562       -0.42189
C          0.68617        3.78793       -1.24766
C         -2.21351        2.99119        2.46100
H         -2.51885        3.99737        2.22478
C         -2.25174        2.53232        3.76639
H         -2.61306        3.17623        4.55153
C         -1.82020        1.25422        4.06552
H         -1.84363        0.89971        5.08286
C         -1.33834        0.43619        3.05957
H         -0.96121       -0.54972        3.28172
Pd        -1.27672        0.84808       -1.50374
Cl        -1.94953        2.00218       -3.30524
Cl        -0.64676       -1.00858       -2.60263
C         -1.39229        5.28174       -1.05139
C         -3.26285        3.55522       -0.82822
H          1.24364        2.97303       -0.78156
H          0.38204        3.44923       -2.24015
H          1.36883        4.63086       -1.37787
H         -1.21210        5.29563       -2.13508
H         -1.07583        6.27126       -0.68838
H         -3.40105        3.23496       -1.86918
C         -2.90803        5.05240       -0.78650
C         -4.46293        3.15453        0.00347
H         -0.23091        4.44733        0.60114
H         -3.17565        5.45429        0.20033
H         -3.52252        5.61129       -1.50882
H         -4.60078        2.07089        0.00174
H         -4.34660        3.46756        1.04120
H         -5.37955        3.61309       -0.37438
C         -0.93324       -4.61216        0.88755
C          0.29464       -4.04458        0.45690
C          0.37121       -2.66768        0.33944
C         -0.68011       -1.86162        0.68953
C         -1.82856       -2.39822        1.21078
C         -1.96839       -3.76777        1.37187
O         -1.15326       -6.00776        0.76055
C          1.54904       -4.86189        0.10467
H          1.26366       -2.20776       -0.04703
H         -2.62611       -1.73042        1.48982
C         -3.22924       -4.28371        2.08668
C          3.78669        1.31864        0.05399
C          3.17993        0.58502       -0.99668
C          1.88322        0.13949       -0.81760
C          1.17664        0.44281        0.31624
C          1.71890        1.24763        1.28354
C          3.00897        1.73618        1.16450
O          5.17565        1.61138        0.00890
C          3.90226        0.26332       -2.31379
H          1.38627       -0.42999       -1.58278
H          1.11278        1.49960        2.13563
C          3.54613        2.70093        2.23289
C          1.46943       -6.30880        0.62104
C          1.73885       -4.86782       -1.42153
C          2.78845       -4.21505        0.76325
C         -3.08730       -5.74725        2.54018
C         -3.47843       -3.44147        3.35789
C         -4.44106       -4.15074        1.14993
C         -1.71980       -6.36241       -0.48995
H          2.40411       -6.84077        0.44516
H          1.26506       -6.32414        1.69102
H          0.67750       -6.86256        0.12250
H          1.83203       -3.85260       -1.80616
H          2.63778       -5.41681       -1.70059
H          0.89205       -5.33387       -1.92144
H          2.64656       -4.12077        1.83945
H          3.67847       -4.82045        0.59335
H          2.99159       -3.22357        0.36197
H         -3.94893       -6.06166        3.12865
H         -3.00868       -6.41848        1.68830
H         -2.19366       -5.87558        3.14996
H         -4.32126       -3.83503        3.92553
H         -2.60200       -3.45430        4.00525
H         -3.70549       -2.40387        3.11906
H         -5.35277       -4.48745        1.64274
H         -4.58672       -3.11456        0.84634
H         -4.30887       -4.74494        0.24793
H         -1.06115       -6.05293       -1.29970
H         -1.85695       -7.44323       -0.52921
H         -2.68353       -5.87227       -0.61642
C          5.99603        0.61082        0.59839
C          4.90721        1.37034       -2.67983
C          4.62319       -1.08651       -2.17921
C          2.89155        0.16993       -3.48040
C          2.39469        3.52707        2.85090
C          4.22808        1.89644        3.34932
C          4.53888        3.70514        1.61967
H          5.70229        1.44429       -1.94212
H          5.37139        1.17466       -3.64610
H          4.40909        2.33794       -2.73231
H          5.14236       -1.34572       -3.10151
H          5.35545       -1.06362       -1.37550
H          3.91241       -1.88215       -1.95703
H          2.26691        1.06176       -3.52515
H          3.40925        0.07579       -4.43457
H          2.24158       -0.69837       -3.38378
H          2.78494        4.29748        3.51551
H          1.81162        4.02043        2.07392
H          1.72313        2.90608        3.44191
H          3.52530        1.20056        3.80696
H          5.06361        1.31743        2.96326
H          4.60754        2.55564        4.12967
H          4.87106        4.43086        2.36158
H          4.07548        4.24868        0.79688
H          5.42207        3.20291        1.23245
H          6.59359        1.05263        1.39567
H          5.38212       -0.19330        1.00620
H          6.67475        0.20491       -0.15146
