111
-148.54924484
P         -2.54597        1.97236       -0.48061
P          0.07762        0.43708        0.44570
C         -1.87222        2.24943        1.17968
C         -0.71986        1.60007        1.56583
C         -2.99855        3.57948       -1.28093
C         -2.16460        3.83585       -2.51714
C         -2.49687        3.11771        2.05187
H         -3.38959        3.63484        1.74021
C         -1.97079        3.32189        3.31590
H         -2.45951        3.99800        3.99828
C         -0.82055        2.66148        3.70333
H         -0.41211        2.81886        4.68799
C         -0.19270        1.79684        2.82453
H          0.70430        1.27014        3.11065
Pd        -1.03741        0.59801       -1.57210
Cl        -2.38843        0.73616       -3.35897
Cl         0.50818       -0.70813       -2.53807
C         -4.51169        3.43312       -1.55400
C         -4.18033        1.10719       -0.53099
H         -2.34767        3.06981       -3.27153
H         -2.40203        4.80247       -2.96768
H         -1.09661        3.82281       -2.28632
H         -4.75747        3.91429       -2.51164
H         -5.08432        3.98431       -0.79379
H         -3.98923        0.09104       -0.90269
C         -4.96569        1.94539       -1.56025
C         -4.82782        1.06367        0.83625
H         -2.80840        4.35916       -0.53069
H         -6.04359        1.86651       -1.35549
H         -4.82169        1.52621       -2.56711
H         -5.77325        0.51634        0.81551
H         -4.17534        0.58706        1.57002
H         -5.04125        2.07240        1.19348
C         -1.29332       -3.82659        1.24227
C         -0.06746       -3.60845        0.56274
C          0.33977       -2.30195        0.34824
C         -0.37927       -1.24722        0.84566
C         -1.51122       -1.45604        1.59023
C         -1.96995       -2.73722        1.84884
O         -1.87213       -5.12318        1.26901
C          0.78679       -4.75401       -0.00121
H          1.20701       -2.08694       -0.25161
H         -2.04622       -0.59646        1.95436
C         -3.20875       -2.92261        2.73873
C          4.54067        1.25539        0.06957
C          3.62540        1.85215       -0.83428
C          2.27526        1.59306       -0.66604
C          1.83725        0.71599        0.29157
C          2.72596        0.05145        1.09628
C          4.08994        0.26999        0.98493
O          5.89766        1.67468        0.08233
C          4.07272        2.77982       -1.97476
H          1.54067        2.07915       -1.28539
H          2.33567       -0.64002        1.82283
C          5.05333       -0.53628        1.87053
C          0.62495       -6.04035        0.82917
C          0.38289       -5.00961       -1.46123
C          2.28554       -4.38287        0.04297
C         -4.47367       -2.85850        1.86937
C         -3.15477       -4.26204        3.49605
C         -3.28165       -1.80747        3.80675
C         -2.74166       -5.38556        0.17429
H          0.86222       -5.85340        1.87594
H         -0.39220       -6.42010        0.78131
H          1.28664       -6.82655        0.46645
H         -0.66516       -5.29084       -1.53577
H          0.52790       -4.11267       -2.06305
H          0.97953       -5.81000       -1.89787
H          2.90310       -5.22910       -0.25712
H          2.52077       -3.56062       -0.63081
H          2.57803       -4.09712        1.05260
H         -4.48444       -3.65604        1.13026
H         -5.37197       -2.95298        2.47891
H         -4.52651       -1.91139        1.33380
H         -4.00066       -4.36227        4.17569
H         -3.18155       -5.10638        2.81180
H         -2.23868       -4.33538        4.08118
H         -4.08662       -2.00234        4.51502
H         -2.34937       -1.74771        4.36772
H         -3.47605       -0.83266        3.36343
H         -2.83051       -4.50265       -0.46007
H         -2.35216       -6.21587       -0.41438
H         -3.72631       -5.66510        0.54884
C          6.15730        2.76385        0.95904
C          3.09078        2.68876       -3.16565
C          4.10210        4.23072       -1.47166
C          5.45983        2.37418       -2.50526
C          6.41617       -0.73294        1.18105
C          5.23833        0.19067        3.21085
C          4.48724       -1.94722        2.14347
H          2.94279        1.65211       -3.46726
H          2.11935        3.11613       -2.92170
H          3.47375        3.23675       -4.02618
H          4.80224        4.34803       -0.64800
H          4.40083        4.91351       -2.26666
H          3.11791        4.53554       -1.11662
H          6.22521        2.48790       -1.74148
H          5.45838        1.33250       -2.82443
H          5.74954        2.98980       -3.35645
H          7.07007       -1.36724        1.77903
H          6.28824       -1.20132        0.20572
H          6.92658        0.21488        1.03090
H          4.28345        0.30115        3.72426
H          5.91181       -0.36204        3.86537
H          5.65222        1.18581        3.06478
H          5.21351       -2.55953        2.67754
H          4.25070       -2.45033        1.20692
H          3.58668       -1.91306        2.75447
H          5.23422        3.09816        1.43426
H          6.86875        2.45676        1.72533
H          6.59645        3.58782        0.39677
