64
-97.21648634
Cl        -1.56654       -1.08429       -2.64209
Cl         1.45846       -1.96487       -2.76773
P          1.93390       -0.63226        0.25452
C          2.16662       -2.29480        1.03492
C          3.69559       -0.23862       -0.16865
P         -1.26070       -0.07484        0.41893
C          1.29155        0.60883        1.43167
C         -0.13184        0.86819        1.51427
C         -0.33472        1.96007        2.45618
C          0.97082        2.39263        2.92386
C          1.97755        1.55383        2.29730
H         -1.29691        2.35312        2.79005
H          1.16050        3.18709        3.64927
Pd         0.18120       -0.93313       -1.24123
H          3.05776        1.61621        2.44372
C         -5.02188        2.18828       -0.84402
C         -4.84021        0.86880       -1.20627
C         -3.69366        0.19921       -0.81799
C         -2.73188        0.84615       -0.07562
C         -2.91880        2.15949        0.29289
C         -4.06134        2.83522       -0.09303
H         -5.91340        2.71287       -1.14697
H         -5.58794        0.36070       -1.79286
H         -3.54088       -0.82989       -1.09975
H         -2.16649        2.65860        0.87661
H         -4.20070        3.86514        0.19220
C         -2.59801       -3.92417        2.42665
C         -2.46244       -3.87590        1.05281
C         -2.06391       -2.70111        0.44296
C         -1.80201       -1.58863        1.20860
C         -1.94129       -1.62778        2.57645
C         -2.34014       -2.80194        3.19008
H         -2.90808       -4.83938        2.90411
H         -2.66672       -4.75013        0.45676
H         -1.95918       -2.63997       -0.62855
H         -1.73101       -0.74285        3.15610
H         -2.44772       -2.84008        4.26165
C          3.97081       -0.39917       -1.64884
H          3.88297        0.79431        0.15303
C          4.47760       -1.24725        0.69590
H          4.69377       -0.80785        1.68088
C          3.67709       -2.56475        0.88266
H          5.45659       -1.44875        0.23669
C          1.69864       -2.26890        2.47380
H          1.57341       -3.00953        0.44810
H          4.04194       -3.11896        1.75934
H          3.85510       -3.22452        0.02109
H          1.82998       -3.24001        2.95693
H          2.26417       -1.53195        3.04757
H          0.64360       -1.99769        2.54341
H          5.01826       -0.19819       -1.88436
H          3.75162       -1.41925       -1.96835
H          3.35838        0.26979       -2.25491
Fe         0.84320        2.50691        0.88195
C          2.19550        3.29509       -0.42776
C          1.32843        4.33109        0.10758
C         -0.04269        3.98700       -0.22922
C         -0.02295        2.73716       -0.96795
C          1.35653        2.30977       -1.08449
H          3.28623        3.27492       -0.36848
H          1.65276        5.22642        0.64317
H         -0.92766        4.58582       -0.00224
H         -0.88471        2.22688       -1.40266
H          1.69932        1.43195       -1.63297
