58
-89.86409288
P          1.73343       -0.32366        0.90637
C          1.83722        1.47695        0.94039
C          1.70807        2.21101        2.09822
C          1.75103        3.59220        2.04497
C          1.92786        4.23253        0.83456
C          2.06739        3.49498       -0.32352
C          2.02207        2.11462       -0.26597
H          2.11477        1.52096       -1.16202
H          1.57751        1.71064        3.04271
C          3.29207       -1.04207        0.38645
C          3.33063       -2.37084        0.03187
C          4.52454       -2.93702       -0.37896
C          5.66973       -2.16676       -0.43002
C          5.62512       -0.83353       -0.07246
C          4.43009       -0.27009        0.33710
H          4.37803        0.77032        0.61457
H          2.42527       -2.95649        0.06866
C          1.26832       -1.06769        2.52992
C         -0.22525       -1.29105        2.71357
C         -1.07501       -0.05817        2.41496
P         -1.67631       -0.11015        0.67817
C         -2.96507       -1.36272        0.55276
C         -2.96360       -2.27442       -0.47834
C         -3.94766       -3.24287       -0.54916
C         -4.93781       -3.28769        0.41159
C         -4.94711       -2.36409        1.43770
C         -3.95794       -1.39904        1.50684
H         -3.96328       -0.66791        2.29926
H         -2.20907       -2.20784       -1.24337
C         -2.30460        1.49926        0.19215
C         -1.46999        2.59035        0.26040
C         -1.92961        3.83507       -0.12869
C         -3.22469        3.97661       -0.58636
C         -4.05815        2.87750       -0.65816
C         -3.59407        1.63406       -0.26840
H         -4.22931        0.76533       -0.32809
H         -0.45682        2.46229        0.60244
Pd         0.11794       -0.44668       -0.76271
Cl         1.80754       -0.63179       -2.23679
Cl        -1.42320       -0.35355       -2.39683
H         -1.95777       -0.00004        3.05534
H         -0.51362        0.86315        2.57045
H         -0.55962       -2.11179        2.06173
H         -0.41576       -1.64646        3.73877
H          1.81750       -2.00852        2.61732
H          1.66387       -0.41212        3.30704
H          1.64577        4.16878        2.94936
H          2.20472        3.99126       -1.27007
H          4.55837       -3.97607       -0.66260
H          6.51801       -0.23171       -0.11529
H         -3.94562       -3.95498       -1.35803
H         -5.72364       -2.39391        2.18434
H         -1.27495        4.68953       -0.07933
H         -5.06700        2.98648       -1.02091
H          1.95898        5.30915        0.79417
H          6.59957       -2.60634       -0.75235
H         -5.70756       -4.04020        0.35700
H         -3.58426        4.94551       -0.89237
