171
-217.83704061
P         -1.73651        0.63809        0.26115
P          1.48272       -0.17596       -0.29290
C         -1.01826        1.75786       -0.96113
C          0.61184       -0.91022       -1.68973
C         -0.35822        1.34047       -2.11106
C          0.24913        2.30967       -2.93165
C          0.15630        3.64733       -2.58645
C         -0.50637        4.04303       -1.44475
C         -1.08398        3.09046       -0.62810
C          0.79721       -2.23146       -2.01657
C          0.12917       -2.77955       -3.09400
C         -0.73867       -2.00092       -3.83083
C         -0.95083       -0.66986       -3.51142
C         -0.23830       -0.10405       -2.43662
Cl         2.08980        1.27256        2.59064
Cl        -0.90809        0.60132        3.49892
C         -1.90464        0.14512       -4.31314
C          1.00412        1.93248       -4.15813
H         -0.56589        5.08714       -1.18434
H         -1.58324        3.38285        0.28400
H          1.46267       -2.83906       -1.42763
H          0.28269       -3.81308       -3.35771
H          0.62209        4.38272       -3.22075
H         -1.25845       -2.42611       -4.67241
C         -2.79158       -3.60522       -0.92474
C         -1.72871       -3.42004       -0.04986
C         -1.40143       -2.11735        0.30799
C         -2.10087       -1.05582       -0.21870
C         -3.14973       -1.26060       -1.08124
C         -3.52214       -2.54749       -1.44854
H         -3.07090       -4.60702       -1.19428
H         -0.59460       -1.92410        0.99157
H         -3.68421       -0.40508       -1.45557
C         -5.65798        2.49965        1.56834
C         -5.31697        2.49975        0.22075
C         -4.10479        1.92625       -0.14034
C         -3.27467        1.38585        0.81100
C         -3.62598        1.39974        2.13627
C         -4.83023        1.95722        2.54380
H         -6.58943        2.93684        1.87527
H         -3.79687        1.91242       -1.17295
H         -2.93580        0.99067        2.85048
C          4.01259       -3.36972        1.75083
C          3.07100       -2.69922        2.51911
C          2.28643       -1.74189        1.89143
C          2.45283       -1.44893        0.55789
C          3.41057       -2.10775       -0.17464
C          4.20037       -3.09398        0.40320
H          4.62590       -4.11821        2.21794
H          1.54980       -1.20844        2.46079
H          3.54032       -1.84590       -1.20950
C          4.42380        2.85361       -1.93891
C          3.71106        3.17913       -0.79092
C          2.82049        2.23953       -0.29236
C          2.64145        1.03729       -0.92654
C          3.33984        0.73870       -2.07101
C          4.25352        1.64312       -2.59993
H          5.14434        3.55004       -2.32379
H          2.27806        2.43860        0.61417
H          3.15364       -0.20226       -2.55886
Pd         0.20596        0.63227        1.54337
C         -0.52436       -5.55917       -0.61852
C         -1.00273       -4.64508        0.52580
C         -1.97420       -5.41856        1.43486
C          0.22803       -4.24023        1.35432
H          0.00201       -6.42909       -0.22602
H         -1.35758       -5.92054       -1.21935
H          0.15918       -5.02554       -1.27710
H         -2.32752       -4.78399        2.24747
H         -2.84441       -5.76347        0.87732
H         -1.48897       -6.29050        1.87318
H          0.74909       -5.12222        1.72547
H          0.93318       -3.67331        0.74905
H         -0.05688       -3.63560        2.21454
C         -5.43130       -1.52176       -2.78096
C         -4.71519       -2.82424       -2.37434
C         -5.72908       -3.72326       -1.64186
C         -4.22062       -3.53192       -3.64794
H         -4.76068       -0.85560       -3.32251
H         -6.28081       -1.73275       -3.43034
H         -5.80804       -0.99572       -1.90418
H         -5.29236       -4.68729       -1.38415
H         -6.06541       -3.25041       -0.71929
H         -6.60437       -3.91074       -2.26360
H         -5.05066       -3.75346       -4.31858
H         -3.51288       -2.90341       -4.18620
H         -3.72175       -4.47090       -3.41074
C         -5.44224        4.25652       -1.56080
C         -6.20943        3.11610       -0.86575
C         -7.51267        3.68941       -0.27703
C         -6.57514        2.03418       -1.89878
H         -6.05491        4.72779       -2.32911
H         -5.15525        5.02215       -0.84026
H         -4.53373        3.88967       -2.03733
H         -8.13527        4.11875       -1.06193
H         -8.09485        2.91191        0.21730
H         -7.30342        4.47815        0.44538
H         -7.22743        2.43808       -2.67282
H         -5.68626        1.63731       -2.38771
H         -7.09420        1.20462       -1.41915
C         -5.43385        3.46169        4.45726
C         -5.25468        1.99666        4.01900
C         -4.19948        1.34064        4.93168
C         -6.58323        1.23665        4.18669
H         -4.50669        4.01872        4.32357
H         -6.20918        3.95780        3.87466
H         -5.71604        3.52281        5.50818
H         -4.04495        0.29546        4.66469
H         -3.24328        1.85875        4.86230
H         -4.51589        1.37164        5.97410
H         -6.89932        1.22903        5.22970
H         -7.37916        1.69508        3.60103
H         -6.47868        0.20283        3.85794
C          1.82916       -2.16061        4.67781
C          2.96627       -2.97461        4.02690
C          4.29384       -2.57610        4.69686
C          2.69327       -4.47028        4.26918
H          2.00044       -1.08965        4.57084
H          0.86539       -2.40150        4.23025
H          1.76045       -2.37626        5.74379
H          5.12555       -3.15805        4.30124
H          4.50997       -1.52223        4.52228
H          4.25296       -2.73916        5.77364
H          3.48449       -5.09259        3.85323
H          2.62819       -4.68510        5.33570
H          1.75252       -4.77131        3.81072
C          6.63022       -3.70504        0.25028
C          5.24625       -3.87654       -0.40272
C          5.33208       -3.37741       -1.85893
C          4.85608       -5.36565       -0.41770
H          6.64264       -4.09901        1.26570
H          7.39746       -4.22963       -0.31893
H          6.90512       -2.65141        0.29633
H          6.08365       -3.93654       -2.41607
H          4.38008       -3.50250       -2.37469
H          5.61053       -2.32436       -1.89523
H          5.57025       -5.95096       -0.99664
H          4.82681       -5.77621        0.59104
H          3.86964       -5.49997       -0.86163
C          4.89799        5.43119       -0.75529
C          3.88557        4.51060       -0.04780
C          4.39010        4.22976        1.37995
C          2.52844        5.23564        0.01618
H          4.99972        6.37608       -0.22159
H          5.88447        4.97004       -0.79877
H          4.57659        5.65892       -1.77153
H          5.33940        3.69528        1.35425
H          4.53884        5.15788        1.93133
H          3.68004        3.62067        1.93809
H          2.62027        6.19235        0.52985
H          2.14777        5.42594       -0.98693
H          1.78647        4.64172        0.54868
C          4.61201        0.02932       -4.53538
C          5.11502        1.30224       -3.82516
C          6.56248        1.06736       -3.35863
C          5.08172        2.46214       -4.83938
H          4.69049       -0.84281       -3.88711
H          3.57254        0.13770       -4.84379
H          5.20331       -0.17463       -5.42794
H          6.96855        1.95800       -2.87989
H          6.60684        0.25124       -2.63755
H          7.20820        0.81238       -4.19876
H          4.06132        2.67107       -5.15795
H          5.49634        3.37643       -4.41748
H          5.66498        2.21717       -5.72692
H         -2.33255        0.95162       -3.71550
H          1.97719        2.42416       -4.17424
H         -2.73024       -0.46516       -4.68174
H         -1.40802        0.59020       -5.17618
H          0.46276        2.23065       -5.05711
H          1.17802        0.85719       -4.20906
