111
-148.55349852
P         -2.67103        2.06732        0.41299
P          0.16040        0.64517        0.24034
C         -1.50539        2.19103        1.80050
C         -0.25697        1.61616        1.69944
C         -3.75325        3.56942        0.33852
C         -3.72234        4.21351       -1.02971
C         -1.86556        2.84768        2.96043
H         -2.84916        3.27941        3.04576
C         -0.96941        2.93357        4.01199
H         -1.25107        3.44634        4.91717
C          0.28329        2.36100        3.90447
H          0.97996        2.42528        4.72407
C          0.63861        1.69546        2.74538
H          1.60578        1.22736        2.65156
Pd        -1.39877        1.27993       -1.35393
Cl        -3.17813        1.60422       -2.67694
Cl        -0.05735        0.45615       -2.95373
C         -5.13748        3.01682        0.73915
C         -3.94593        0.74669        0.64754
H         -2.70293        4.47299       -1.32454
H         -4.12032        3.53283       -1.78323
H         -4.32636        5.12347       -1.05915
H         -5.92350        3.59133        0.22759
H         -5.30773        3.17597        1.81412
H         -3.77551       -0.00346       -0.13715
C         -5.27116        1.50139        0.41705
C         -3.82327        0.11551        2.01719
H         -3.37257        4.27165        1.09209
H         -6.06529        1.04393        1.02505
H         -5.59070        1.38027       -0.62858
H         -3.96590        0.86284        2.79998
H         -4.56853       -0.66940        2.16658
H         -2.83493       -0.32603        2.16046
C         -1.08886       -3.68594        0.90318
C         -0.83190       -2.85132        2.02107
C         -0.44762       -1.54173        1.78809
C         -0.37002       -1.04481        0.51398
C         -0.70025       -1.82193       -0.56346
C         -1.11608       -3.13132       -0.40199
O         -1.27718       -5.08142        1.08821
C         -0.91812       -3.36078        3.46795
H         -0.18876       -0.89054        2.60420
H         -0.61269       -1.38717       -1.54385
C         -1.56898       -3.92086       -1.63967
C          4.63476        0.59919       -0.60851
C          3.79130        1.45292       -1.36942
C          2.44001        1.48359       -1.06440
C          1.91245        0.64739       -0.11621
C          2.70175       -0.26830        0.53035
C          4.06122       -0.34799        0.28038
O          6.04431        0.74214       -0.68059
C          4.28364        2.31563       -2.54412
H          1.77687        2.15672       -1.58064
H          2.23801       -0.93474        1.23820
C          4.85194       -1.47543        0.96539
C         -2.02588       -4.41942        3.61541
C          0.43970       -3.95202        3.87700
C         -1.26404       -2.20881        4.43892
C         -2.23094       -2.97577       -2.66984
C         -0.34801       -4.58464       -2.29381
C         -2.61931       -4.98345       -1.26943
C         -0.08143       -5.84433        0.98386
H         -2.12978       -4.73609        4.65290
H         -2.98422       -4.02022        3.28476
H         -1.81029       -5.30432        3.02165
H          0.71491       -4.78693        3.23724
H          1.22602       -3.20139        3.79869
H          0.41576       -4.31038        4.90581
H         -0.45581       -1.48228        4.50855
H         -2.16742       -1.68978        4.12069
H         -1.43669       -2.59090        5.44481
H         -2.67066       -3.54336       -3.48945
H         -3.02357       -2.38992       -2.20508
H         -1.51118       -2.28703       -3.10929
H          0.38389       -3.83432       -2.59211
H          0.14308       -5.27052       -1.60748
H         -0.63753       -5.14564       -3.18196
H         -2.98575       -5.49827       -2.15720
H         -2.20665       -5.73443       -0.60071
H         -3.47036       -4.52279       -0.76888
H          0.77497       -5.18936        0.81810
H          0.06842       -6.41378        1.90106
H         -0.16551       -6.54846        0.15638
C          6.54810        1.68929        0.24611
C          3.33136        2.13181       -3.74715
C          4.29044        3.79503       -2.12656
C          5.68969        1.90982       -3.01917
C          6.22832       -1.69969        0.31576
C          5.03377       -1.13949        2.45457
C          4.07023       -2.80313        0.83908
H          3.24321        1.07796       -4.00947
H          2.33222        2.50837       -3.53551
H          3.70099        2.66679       -4.62149
H          4.96617        3.96412       -1.29022
H          4.61150        4.43076       -2.95131
H          3.29572        4.11819       -1.82131
H          6.43630        2.10709       -2.25349
H          5.72398        0.84633       -3.25302
H          5.97844        2.46431       -3.91175
H          6.73343       -2.56107        0.75216
H          6.12409       -1.87236       -0.75484
H          6.87400       -0.83538        0.45264
H          5.57387       -1.93342        2.96978
H          5.59312       -0.21481        2.58345
H          4.06919       -1.01589        2.94623
H          4.64911       -3.63435        1.24088
H          3.84915       -3.02118       -0.20537
H          3.12764       -2.77376        1.38328
H          7.62633        1.78245        0.11478
H          6.07974        2.65844        0.08161
H          6.33648        1.36512        1.26376
