111
-148.55714906
P         -1.63334        2.80149        0.07452
P         -0.56469       -0.14433        0.47886
C         -1.59616        2.07457        1.73792
C         -1.20098        0.76354        1.90184
C         -0.42707        4.19596       -0.06061
C          0.68206        3.84960       -1.03093
C         -1.93521        2.83273        2.84034
H         -2.20646        3.86768        2.71082
C         -1.90179        2.26646        4.10302
H         -2.17032        2.85705        4.96366
C         -1.51942        0.94822        4.26241
H         -1.48840        0.50920        5.24603
C         -1.15782        0.19718        3.15866
H         -0.82497       -0.82258        3.26916
Pd        -1.39066        0.99884       -1.35190
Cl        -2.11444        2.34037       -2.99722
Cl        -1.01141       -0.80915       -2.62965
C         -1.30339        5.38583       -0.50121
C         -3.21099        3.69785       -0.29767
H          0.27399        3.62738       -2.01904
H          1.38944        4.67498       -1.14051
H          1.23791        2.96890       -0.70317
H         -1.20681        5.50862       -1.58867
H         -0.92436        6.32260       -0.06554
H         -3.43394        3.48314       -1.35102
C         -2.80178        5.17336       -0.14099
C         -4.36077        3.25230        0.58084
H         -0.03225        4.35694        0.95113
H         -2.98008        5.48391        0.89764
H         -3.44927        5.81698       -0.75603
H         -4.53797        2.17861        0.48541
H         -4.15667        3.45756        1.63195
H         -5.28523        3.77267        0.32038
C         -0.78016       -4.68040        0.77729
C          0.20710       -3.96587        1.50698
C          0.24604       -2.58706        1.37770
C         -0.69507       -1.91902        0.63835
C         -1.72651       -2.59258        0.03923
C         -1.82069       -3.97241        0.11883
O         -0.67983       -6.08863        0.63839
C          1.23303       -4.62825        2.44216
H          1.03116       -2.01581        1.84490
H         -2.45053       -2.02606       -0.52178
C         -3.04568       -4.64612       -0.52203
C          3.70292        1.25092       -0.27764
C          3.06973        0.37880       -1.19973
C          1.77361       -0.02630       -0.93309
C          1.14198        0.33865        0.22532
C          1.78241        1.10181        1.16520
C          3.07870        1.54371        0.96224
O          4.94030        1.86262       -0.61273
C          3.73676       -0.08609       -2.50273
H          1.21205       -0.59559       -1.65327
H          1.24460        1.36902        2.05754
C          3.76357        2.36835        2.06267
C          0.86263       -6.08218        2.78309
C          2.62299       -4.59111        1.78525
C          1.28459       -3.85206        3.77703
C         -2.90377       -4.60794       -2.05291
C         -3.22567       -6.10155       -0.05669
C         -4.32499       -3.88212       -0.11466
C          0.10450       -6.47580       -0.47780
H          0.90516       -6.71747        1.90167
H          1.54626       -6.49881        3.52245
H         -0.14829       -6.13680        3.18549
H          2.62977       -5.14116        0.84628
H          2.92586       -3.56646        1.57156
H          3.37430       -5.03369        2.43877
H          1.94900       -4.34402        4.48697
H          1.65107       -2.83590        3.64129
H          0.29389       -3.79586        4.22728
H         -2.80930       -3.58274       -2.40963
H         -2.02131       -5.15408       -2.38014
H         -3.77286       -5.05333       -2.53623
H         -2.40665       -6.72948       -0.39909
H         -3.25624       -6.15618        1.03094
H         -4.15081       -6.52671       -0.44514
H         -4.33458       -2.86790       -0.51009
H         -5.21460       -4.38518       -0.49283
H         -4.40807       -3.82260        0.97017
H          0.14379       -7.56405       -0.52971
H         -0.33366       -6.08711       -1.39548
H          1.11513       -6.08327       -0.37944
C          4.80921        3.10616       -1.29097
C          3.21038       -1.48039       -2.91463
C          3.40684        0.91209       -3.62320
C          5.26113       -0.21489       -2.33314
C          3.45291        3.85759        1.84809
C          3.24303        1.95366        3.45812
C          5.28531        2.13630        2.06485
H          3.30687       -2.18944       -2.09278
H          2.16437       -1.44456       -3.21519
H          3.77259       -1.87130       -3.76233
H          3.85330        0.60118       -4.56728
H          2.32906        0.98597       -3.76734
H          3.77724        1.90687       -3.38762
H          5.72467       -0.60403       -3.23933
H          5.71970        0.74642       -2.11623
H          5.49971       -0.89092       -1.51275
H          2.37865        4.03601        1.88669
H          3.92401        4.46949        2.61686
H          3.81004        4.20010        0.87990
H          3.32773        0.87637        3.59896
H          3.81788        2.44041        4.24566
H          2.20153        2.23788        3.60164
H          5.76212        2.67043        2.88634
H          5.74107        2.48137        1.14027
H          5.51133        1.07600        2.17295
H          3.75698        3.35395       -1.43333
H          5.29205        3.89237       -0.71092
H          5.30242        3.04800       -2.26112
