58
-89.86562296
P          1.77223       -0.34236        0.83550
C          1.85348        1.45525        0.94392
C          1.77196        2.13470        2.13889
C          1.79969        3.51733        2.14655
C          1.91354        4.21329        0.95944
C          2.00365        3.53020       -0.23647
C          1.97334        2.14817       -0.23978
H          2.02990        1.59602       -1.16484
H          1.68967        1.59069        3.06450
C          3.32444       -1.02170        0.25047
C          3.36746       -2.33191       -0.16706
C          4.55741       -2.86579       -0.62940
C          5.69399       -2.08214       -0.66854
C          5.64477       -0.76757       -0.24797
C          4.45368       -0.23626        0.21292
H          4.39747        0.78967        0.53937
H          2.46854       -2.92785       -0.13875
C          1.33536       -1.15519        2.43541
C         -0.15278       -1.40001        2.64661
C         -1.02647       -0.16416        2.44006
P         -1.66727       -0.12392        0.71660
C         -2.97531       -1.35064        0.58762
C         -4.14200       -1.15185        1.29140
C         -5.15562       -2.09127        1.22376
C         -4.99088       -3.22665        0.45537
C         -3.81650       -3.42547       -0.24313
C         -2.80540       -2.48441       -0.17378
H         -1.88707       -2.62572       -0.72013
H         -4.25510       -0.26182        1.89050
C         -2.25541        1.51458        0.26872
C         -1.45065        2.60449        0.50773
C         -1.87413        3.86888        0.14149
C         -3.10188        4.03243       -0.46850
C         -3.90227        2.93499       -0.71792
C         -3.47433        1.67204       -0.35036
H         -4.08085        0.80516       -0.55605
H         -0.48165        2.46103        0.95497
Pd         0.08989       -0.44967       -0.76021
Cl         1.72200       -0.51087       -2.30578
Cl        -1.56352       -0.53690       -2.28716
H         -1.90365       -0.16556        3.09176
H         -0.47713        0.75428        2.64738
H         -0.49743       -2.18930        1.96246
H         -0.31103       -1.81115        3.65624
H          1.89231       -2.09489        2.47120
H          1.74379       -0.53165        3.23185
H          1.73220        4.05148        3.08014
H          2.09120        4.07012       -1.16485
H          4.59478       -3.88999       -0.96232
H          6.53082       -0.15517       -0.28161
H         -6.07119       -1.93643        1.77060
H         -3.68793       -4.31048       -0.84439
H         -1.24154        4.72178        0.32454
H         -4.85621        3.06037       -1.20324
H          1.93348        5.29091        0.96660
H          6.62065       -2.49652       -1.03089
H         -5.78005       -3.95874        0.40068
H         -3.43265        5.01679       -0.75716
