75
-122.81826768
P          1.80089       -0.58870        0.04343
C          3.10643       -1.32175       -0.95705
C          4.38637       -1.33985       -0.45095
C          5.40814       -1.91849       -1.18209
C          5.13776       -2.48440       -2.41197
C          3.84936       -2.47880       -2.90813
C          2.83017       -1.89997       -2.17463
H          1.82021       -1.89511       -2.55107
H          3.63712       -2.92367       -3.86642
H          5.93276       -2.93447       -2.98388
H          6.41188       -1.92970       -0.79012
H          4.57828       -0.91229        0.52085
C          1.70542       -1.57479        1.54572
C          1.53115       -0.97909        2.77373
C          1.54874       -1.74778        3.92248
C          1.73729       -3.11256        3.83312
C          1.90432       -3.70898        2.59906
C          1.89045       -2.93545        1.45221
H          2.03749       -3.38469        0.48268
H          2.04834       -4.77452        2.52837
H          1.74670       -3.71409        4.72734
H          1.40792       -1.28244        4.88414
H          1.36744        0.08402        2.82712
C          2.19669        1.12126        0.45035
C          3.35223        1.76593        0.07525
C          3.52766        3.11588        0.34665
C          2.49651        3.81321        0.97534
C          1.32611        3.18458        1.33801
C          1.17469        1.81233        1.08274
O         -0.01086        1.13650        1.41339
C         -1.20017        1.81085        1.09495
C         -1.35518        3.18043        1.36253
C         -2.53539        3.80515        1.02536
C         -3.57188        3.10804        0.40521
C         -3.38907        1.76388        0.11069
C         -2.22307        1.12372        0.46009
P         -1.82171       -0.56908       -0.00339
C         -1.66620       -1.60896        1.45150
C         -1.77716       -1.07162        2.71323
C         -1.74143       -1.90118        3.81878
C         -1.59644       -3.26418        3.65095
C         -1.48390       -3.79862        2.38262
C         -1.52180       -2.96626        1.27822
H         -1.45188       -3.36863        0.27968
H         -1.36726       -4.86184        2.25198
H         -1.56426       -3.91157        4.51200
H         -1.82282       -1.48330        4.80865
H         -1.88649       -0.00558        2.82716
C         -3.14953       -1.27393       -0.99367
C         -4.39758       -1.37822       -0.42244
C         -5.44159       -1.92881       -1.14397
C         -5.22506       -2.37873       -2.43110
C         -3.96849       -2.28374       -2.99527
C         -2.92714       -1.73283       -2.27153
H         -1.94292       -1.65377       -2.70335
H         -3.79868       -2.63624       -3.99936
H         -6.03745       -2.80676       -2.99547
H         -6.42058       -2.00766       -0.70059
H         -4.54718       -1.03506        0.58952
Pd         0.00832       -0.03565       -1.41163
Cl        -1.55200        1.03646       -2.64391
Cl         1.60158        0.91071       -2.69929
H         -4.15250        1.22503       -0.42198
C         -4.82055        3.80628       -0.00014
H         -5.67816        3.13364        0.04343
H         -4.73845        4.18161       -1.02093
H         -5.02931        4.65295        0.65505
H         -2.64799        4.85507        1.23050
S         -0.00928        4.06363        2.10906
H          2.60595        4.86572        1.16854
C          4.76433        3.81819       -0.08762
H          4.11293        1.22673       -0.46048
H          4.66255        4.18080       -1.11123
H          4.97771        4.67402        0.55404
H          5.62748        3.15227       -0.05049
