171
-217.84654603
P         -1.60367        0.41487       -0.27620
P          1.61265       -0.40307       -0.30114
C         -0.87744        1.37198       -1.61085
C          0.85506       -1.35562       -1.62377
C         -0.10547        0.74653       -2.58326
C          0.51763        1.53928       -3.56613
C          0.32286        2.91059       -3.55383
C         -0.46335        3.50889       -2.59181
C         -1.05795        2.73345       -1.61624
C          1.03492       -2.71737       -1.63034
C          0.42052       -3.49542       -2.59139
C         -0.38604       -2.89962       -3.53772
C         -0.58103       -1.52841       -3.54920
C          0.06374       -0.73268       -2.58256
Cl         1.68662        0.27488        2.84575
Cl        -1.50381       -0.25750        2.97363
C         -1.46252       -0.92462       -4.58607
C          1.37047        0.92969       -4.62321
H         -0.61229        4.57623       -2.59858
H         -1.66873        3.19283       -0.85638
H          1.66019       -3.17565       -0.88167
H          0.56864       -4.56288       -2.59808
H          0.79846        3.51187       -4.31027
H         -0.87868       -3.50284       -4.28162
C         -3.90293       -3.24289       -1.59672
C         -2.89473       -3.39312       -0.65308
C         -2.18815       -2.25932       -0.27239
C         -2.47030       -1.04384       -0.84348
C         -3.45728       -0.91389       -1.78956
C         -4.20314       -2.01922       -2.18191
H         -4.48863       -4.10215       -1.86656
H         -1.42204       -2.30982        0.48170
H         -3.65109        0.06214       -2.20134
C         -4.44274        2.87562        2.27590
C         -3.09307        3.21031        2.26934
C         -2.24241        2.47087        1.45775
C         -2.72291        1.42580        0.70872
C         -4.05550        1.09952        0.74210
C         -4.94659        1.82159        1.52286
H         -5.11618        3.44478        2.88699
H         -1.19103        2.70017        1.42171
H         -4.40570        0.26407        0.16193
C          4.44947       -2.92236        2.18815
C          3.09149       -3.21651        2.22149
C          2.24409       -2.45948        1.42301
C          2.73733       -1.43439        0.65460
C          4.07939       -1.14595        0.64965
C          4.96753       -1.89384        1.41141
H          5.12734       -3.49851        2.78919
H          1.18545       -2.65601        1.41413
H          4.42785       -0.32020        0.05600
C          3.86211        3.27053       -1.67454
C          4.15680        2.05011       -2.26916
C          3.43320        0.93686       -1.85671
C          2.47169        1.05637       -0.88317
C          2.19541        2.26959       -0.30406
C          2.88008        3.41046       -0.70251
H          4.43018        4.13586       -1.96211
H          3.62147       -0.03577       -2.27862
H          1.44889        2.31485        0.46949
Pd         0.01935        0.04828        1.35379
C         -3.83979       -5.17564        0.82748
C         -2.62706       -4.76794       -0.02716
C         -1.37571       -4.74083        0.87029
C         -2.40024       -5.80844       -1.14022
H         -4.01878       -4.44321        1.61450
H         -4.74298       -5.24257        0.22175
H         -3.67801       -6.14533        1.29791
H         -0.50352       -4.41575        0.30411
H         -1.51220       -4.06637        1.71512
H         -1.16465       -5.73171        1.27208
H         -2.16385       -6.78502       -0.71805
H         -3.28451       -5.92380       -1.76546
H         -1.57278       -5.50989       -1.78270
C         -5.45439       -0.50741       -3.80218
C         -5.38030       -1.90715       -3.16101
C         -6.68955       -2.16542       -2.39330
C         -5.22750       -2.94906       -4.28581
H         -5.62827        0.26191       -3.05034
H         -4.53290       -0.26923       -4.33246
H         -6.27298       -0.45376       -4.51977
H         -6.81027       -1.44584       -1.58384
H         -7.55300       -2.08071       -3.05286
H         -6.69798       -3.16321       -1.95568
H         -5.24607       -3.96519       -3.89433
H         -6.03718       -2.86028       -5.00998
H         -4.28624       -2.81263       -4.81654
C         -2.12771        5.51458        2.16663
C         -2.52356        4.36388        3.10728
C         -1.28487        3.87444        3.88478
C         -3.55212        4.88909        4.12776
H         -1.39892        5.18274        1.42918
H         -2.99795        5.88808        1.62723
H         -1.69187        6.34398        2.72331
H         -0.89468        4.66007        4.53140
H         -1.53708        3.01710        4.50842
H         -0.48208        3.57306        3.21401
H         -4.41988        5.31986        3.62894
H         -3.89190        4.08932        4.78561
H         -3.11445        5.66880        4.75106
C         -6.99300        1.57153        0.09921
C         -6.42916        1.42284        1.52449
C         -7.25786        2.30697        2.47562
C         -6.55945       -0.04280        1.98150
H         -8.04790        1.29983        0.06573
H         -6.89723        2.60030       -0.24741
H         -6.46121        0.93206       -0.60412
H         -7.21490        3.35391        2.17593
H         -8.30528        2.00553        2.46910
H         -6.89721        2.22471        3.50078
H         -6.03960       -0.71859        1.30331
H         -6.13289       -0.17454        2.97562
H         -7.60481       -0.34872        2.01835
C          3.54155       -4.85703        4.11434
C          2.51332       -4.34522        3.08656
C          2.10304       -5.51164        2.17232
C          1.28285       -3.82781        3.85933
H          4.39971       -5.31386        3.62222
H          3.89730       -4.04413        4.74720
H          3.09740       -5.61303        4.76180
H          2.96840       -5.90804        1.64146
H          1.65671       -6.32277        2.74731
H          1.37896       -5.18646        1.42738
H          0.47730       -3.53847        3.18675
H          0.89179       -4.59420        4.52813
H          1.54476       -2.95675        4.45955
C          7.25246       -2.85600        1.01747
C          6.47321       -1.59504        1.43483
C          6.88212       -1.17665        2.85856
C          6.84013       -0.45491        0.46414
H          7.07463       -3.68001        1.70732
H          6.95171       -3.18167        0.02181
H          8.32503       -2.66328        0.99983
H          6.32345       -0.29604        3.17509
H          6.68532       -1.97249        3.57600
H          7.94461       -0.93864        2.90594
H          7.91323       -0.26469        0.47776
H          6.56240       -0.70902       -0.55863
H          6.33850        0.47272        0.73936
C          5.07404        2.97966       -4.42188
C          5.29797        1.95596       -3.29225
C          5.38417        0.55015       -3.91795
C          6.63014        2.25942       -2.58271
H          4.11887        2.81091       -4.91675
H          5.07699        4.00025       -4.04163
H          5.85923        2.90579       -5.17413
H          5.60135       -0.20429       -3.16214
H          4.45147        0.28318       -4.41384
H          6.17921        0.50625       -4.66219
H          6.62961        3.26218       -2.15664
H          6.80481        1.55303       -1.77196
H          7.46740        2.19048       -3.27699
C          3.84256        5.19499        0.76384
C          2.61551        4.78174       -0.06716
C          1.38233        4.74374        0.85525
C          2.35922        5.82442       -1.17180
H          4.73271        5.26915        0.13989
H          3.68422        6.16239        1.24012
H          4.04216        4.46163        1.54500
H          0.50143        4.41306        0.30608
H          1.54022        4.06930        1.69639
H          1.17166        5.73236        1.26277
H          2.12289        6.79745       -0.74145
H          3.23049        5.94967       -1.81315
H          1.52219        5.52152       -1.79963
H         -1.78007        0.08027       -4.30459
H          0.82391        0.84305       -5.56321
H         -2.36108       -1.52539       -4.72777
H         -0.94846       -0.86119       -5.54607
H          1.71100       -0.06607       -4.33614
H          2.25521        1.53903       -4.80693
