58
-89.86162336
P          1.74282       -0.16283        0.86899
C          1.86241        1.62677        1.01091
C          0.81358        2.41678        0.60161
C          0.88418        3.78962        0.73746
C          2.00902        4.36625        1.29220
C          3.05489        3.57132        1.71864
C          2.97733        2.19647        1.58287
H          3.77947        1.56351        1.92804
H         -0.07247        1.95803        0.20298
C          3.28182       -0.89564        0.29640
C          3.45677       -2.25653        0.40877
C          4.61815       -2.84293       -0.06246
C          5.59256       -2.06305       -0.65297
C          5.40587       -0.70095       -0.77953
C          4.24409       -0.11811       -0.30681
H          4.07559        0.93973       -0.42531
H          2.67758       -2.85954        0.84755
C          1.30782       -0.81739        2.53916
C         -0.17668       -1.07895        2.74179
C         -1.06876        0.11016        2.39102
P         -1.64722        0.01785        0.64391
C         -2.90964       -1.25677        0.55051
C         -2.56630       -2.57494        0.35385
C         -3.55448       -3.54083        0.29274
C         -4.88005       -3.17991        0.43228
C         -5.22022       -1.85656        0.63179
C         -4.22960       -0.89262        0.69152
H         -4.47897        0.14557        0.84349
H         -1.52944       -2.84406        0.23218
C         -2.33247        1.58239        0.08095
C         -2.68429        2.56903        0.97453
C         -3.18597        3.77025        0.50688
C         -3.33585        3.97328       -0.85098
C         -2.98999        2.97761       -1.74287
C         -2.48832        1.77915       -1.27148
H         -2.21725        0.98592       -1.94917
H         -2.56259        2.40095        2.03220
Pd         0.12076       -0.55654       -0.74908
Cl         1.77939       -0.89940       -2.22587
Cl        -1.44832       -1.14640       -2.25405
H         -1.97355        0.13522        3.00355
H         -0.54578        1.05429        2.55159
H         -0.48487       -1.94363        2.13817
H         -0.34928       -1.38569        3.78549
H          1.89655       -1.72097        2.71178
H          1.66695       -0.07339        3.25363
H          0.05897        4.40458        0.41793
H          3.92948        4.02019        2.16013
H          4.75736       -3.90799        0.02448
H          6.15961       -0.09335       -1.25279
H         -3.28919       -4.57283        0.13185
H         -6.25459       -1.57387        0.73865
H         -3.45842        4.54703        1.20239
H         -3.11009        3.13257       -2.80246
H          2.06798        5.43715        1.39908
H          6.49579       -2.51939       -1.02398
H         -5.65053       -3.93200        0.38275
H         -3.72629        4.90960       -1.21511
