105
-153.05954110
Cl         0.17828        3.42608        1.83767
Pd        -0.16083        1.91038        0.21075
P         -0.74175        0.21648       -1.34339
N          0.09334       -1.22629       -1.94748
C          0.18482       -2.54043       -1.49910
C         -0.12562       -2.96890       -0.18006
C          0.22615       -4.27576        0.22364
C          0.12947       -4.64202        1.68801
C          0.96831       -5.86971        2.07219
C          0.71970       -7.01766        1.08946
C          1.09829       -6.60740       -0.34308
C          0.73248       -5.18763       -0.70525
C          0.94300       -4.77183       -2.01337
C          0.69774       -3.47819       -2.39491
H          0.91639       -3.16544       -3.40134
H          1.34017       -5.47570       -2.72528
H          2.17850       -6.73151       -0.48599
H          1.26833       -7.91909        1.39703
H          2.03225       -5.60193        2.05651
H          0.43539       -3.77581        2.28857
C         -0.72348       -2.06565        0.83926
C          0.10361       -1.07532        1.43065
C         -0.35672       -0.37831        2.54805
C         -1.61118       -0.62116        3.04488
C         -2.45669       -1.55395        2.45049
C         -3.82709       -1.76231        3.03875
C         -4.42984       -3.12590        2.67148
C         -4.35839       -3.34911        1.15798
C         -2.90924       -3.28791        0.64332
C         -2.02024       -2.27988        1.33872
H         -2.45692       -4.28098        0.72561
H         -4.95590       -2.57887        0.65766
H         -5.46443       -3.21008        3.03343
H         -4.48534       -0.95864        2.68813
H         -1.96426       -0.06790        3.89846
H          0.27029        0.37395        2.99038
N          1.26232       -0.72148        0.74506
P          1.81744        0.89729        0.96913
C          2.90374        1.37387       -0.36795
C          3.16448        2.70724       -0.57662
C          3.91713        3.09356       -1.67093
C          4.39954        2.14730       -2.56576
C          4.13142        0.80516       -2.33044
C          3.37855        0.41986       -1.23606
H          3.14982       -0.61926       -1.06339
H          4.50831        0.06433       -3.01471
C          5.21523        2.56127       -3.74071
H          4.12427        4.13594       -1.84262
H          2.75153        3.43782        0.10144
C          2.65604        0.97092        2.55188
C          3.49444       -0.06868        2.87705
C          4.16085       -0.06088        4.09012
C          3.99412        0.99163        4.98050
C          3.13345        2.02574        4.63772
C          2.46961        2.01408        3.42622
H          1.79191        2.80710        3.16112
H          2.98334        2.83809        5.32822
C          4.68868        0.98921        6.29781
H          4.81295       -0.87609        4.35325
H          3.61378       -0.88615        2.18285
H          1.10843       -0.84511       -0.25562
H          0.29469       -1.06157       -2.92606
C         -0.60225        1.35100       -2.73306
C         -1.69636        1.75375       -3.46035
C         -1.53381        2.63376       -4.51429
C         -0.27504        3.11895       -4.84342
C          0.81888        2.69039       -4.10429
C          0.65250        1.81041       -3.05092
H          1.49831        1.48782       -2.46705
H          1.80157        3.05224       -4.35390
C         -0.09832        4.05200       -5.99034
H         -2.38751        2.95341       -5.08715
H         -2.67470        1.38831       -3.19588
C         -2.48161       -0.17571       -1.16869
C         -3.26965        0.41591       -0.21007
C         -4.62233        0.13510       -0.16325
C         -5.19515       -0.74114       -1.07505
C         -4.38460       -1.32549       -2.03868
C         -3.03041       -1.04389       -2.08217
H         -2.39482       -1.49491       -2.82800
H         -4.81993       -2.00006       -2.75591
C         -6.65732       -1.02132       -1.04245
H         -5.24483        0.60413        0.57937
H         -2.83058        1.10731        0.49002
Cl        -1.83008        3.18277       -0.59981
H          0.62879       -7.28508       -1.06757
H          0.75732       -6.18411        3.10415
H         -0.34156       -7.29518        1.12091
H         -0.91705       -4.82387        1.95220
H         -4.82882       -4.30389        0.88421
H         -2.90103       -3.06689       -0.43085
H         -3.77437       -1.64722        4.12892
H         -3.87095       -3.91995        3.18260
H          6.27811        2.55665       -3.49550
H          5.06073        1.88641       -4.58384
H          4.94980        3.56688       -4.07000
H          4.90756        2.00534        6.62894
H          4.07115        0.51237        7.06019
H          5.63447        0.44826        6.24376
H          0.78414        4.67910       -5.85582
H          0.01962        3.50045       -6.92405
H         -0.96003        4.71264       -6.09537
H         -7.05582       -0.92012       -0.03190
H         -7.19837       -0.32847       -1.68823
H         -6.87142       -2.03563       -1.38238
