171
-217.83886084
P         -1.49901        0.21979       -0.20516
P          1.67634       -0.67290        0.19317
C         -0.72323        0.79115       -1.72699
C          0.82456       -1.86023       -0.87041
C          0.03841       -0.10551       -2.46528
C          0.68105        0.34345       -3.63504
C          0.49086        1.65363       -4.04427
C         -0.28975        2.52312       -3.31077
C         -0.89402        2.08653       -2.14847
C          0.83788       -3.15508       -0.40758
C          0.16781       -4.14881       -1.09440
C         -0.52871       -3.83095       -2.24020
C         -0.56996       -2.53052       -2.71408
C          0.12688       -1.52072       -2.02354
Cl         1.21509       -0.16079        3.39720
Cl        -1.88722       -0.91381        2.95919
C         -1.37220       -2.23281       -3.93242
C          1.53745       -0.57069       -4.43961
H         -0.42445        3.54031       -3.64054
H         -1.50892        2.75583       -1.57180
H          1.36980       -3.38415        0.50423
H          0.18295       -5.16319       -0.73067
H          0.95533        1.98902       -4.95580
H         -1.06445       -4.59734       -2.77470
C         -4.53316       -2.96835       -1.27372
C         -3.71242       -3.17223       -0.17185
C         -2.80615       -2.17308        0.15511
C         -2.70929       -1.03972       -0.61144
C         -3.51038       -0.86599       -1.71375
C         -4.45120       -1.82800       -2.06313
H         -5.26788       -3.71440       -1.51370
H         -2.17964       -2.26359        1.02351
H         -3.38220        0.01899       -2.31220
C         -3.76971        3.72233        1.61925
C         -4.11993        3.24733        0.36292
C         -3.40806        2.16742       -0.14380
C         -2.37488        1.60516        0.56633
C         -2.04793        2.09331        1.81000
C         -2.74906        3.15300        2.36802
H         -4.30937        4.55694        2.02766
H         -3.65302        1.76084       -1.10851
H         -1.24511        1.64194        2.36099
C          5.63079       -2.59950        1.29396
C          5.15530       -2.70623       -0.00790
C          3.93714       -2.10840       -0.30323
C          3.22992       -1.44228        0.66743
C          3.71471       -1.34915        1.94650
C          4.92976       -1.92707        2.28762
H          6.56997       -3.05275        1.54980
H          3.52823       -2.17178       -1.29827
H          3.12241       -0.83353        2.67907
C          2.84364        3.42340       -1.35806
C          1.88351        3.35281       -0.35541
C          1.50339        2.09330        0.08984
C          2.07085        0.96110       -0.44720
C          3.03381        1.05259       -1.42193
C          3.44335        2.29243       -1.89696
H          3.15266        4.38467       -1.72289
H          0.77002        1.99825        0.87059
H          3.47465        0.14563       -1.79732
Pd        -0.14872       -0.43386        1.62751
C         -2.78859       -4.50785        1.78626
C         -3.82978       -4.46296        0.64978
C         -3.59412       -5.67465       -0.27084
C         -5.23611       -4.54322        1.26960
H         -1.77467       -4.44602        1.39132
H         -2.93634       -3.68690        2.48753
H         -2.86839       -5.43828        2.34801
H         -4.33679       -5.71951       -1.06642
H         -2.60982       -5.61846       -0.73491
H         -3.64992       -6.60744        0.29001
H         -5.34512       -5.44281        1.87510
H         -5.42349       -3.68064        1.90884
H         -6.00686       -4.56292        0.49995
C         -5.01048       -0.43515       -4.11831
C         -5.43325       -1.61912       -3.22563
C         -6.82704       -1.32577       -2.64324
C         -5.49867       -2.88366       -4.10455
H         -4.00540       -0.58144       -4.51286
H         -5.68759       -0.32890       -4.96575
H         -5.03105        0.50389       -3.56624
H         -7.55661       -1.16286       -3.43631
H         -7.17627       -2.15541       -2.02911
H         -6.80280       -0.43417       -2.01684
H         -4.51428       -3.13853       -4.49464
H         -5.87194       -3.74136       -3.54702
H         -6.16481       -2.73078       -4.95357
C         -6.54611        3.88866        0.40284
C         -5.24947        3.92249       -0.42709
C         -5.51257        3.20668       -1.76706
C         -4.85469        5.38121       -0.72032
H         -6.82105        2.86197        0.64392
H         -6.43336        4.43373        1.33914
H         -7.37248        4.33933       -0.14657
H         -6.32350        3.69020       -2.31156
H         -4.62928        3.22897       -2.40523
H         -5.79759        2.16724       -1.60546
H         -5.62989        5.88776       -1.29502
H         -4.70146        5.94169        0.20127
H         -3.92829        5.42085       -1.29331
C         -3.70838        3.58098        4.64403
C         -2.44052        3.68341        3.77565
C         -1.99366        5.15271        3.68037
C         -1.32264        2.87016        4.45939
H         -4.05381        2.54871        4.69748
H         -3.51447        3.92530        5.65971
H         -4.51867        4.18464        4.23719
H         -1.75860        5.55395        4.66600
H         -1.10443        5.24463        3.05856
H         -2.77299        5.77567        3.24287
H         -1.12825        3.24727        5.46315
H         -1.60066        1.82018        4.54954
H         -0.39008        2.93142        3.90044
C          7.23769       -4.04658       -0.60009
C          5.90833       -3.46041       -1.11278
C          6.21556       -2.49273       -2.27074
C          5.02797       -4.61616       -1.62425
H          7.06744       -4.75639        0.20920
H          7.75994       -4.57537       -1.39738
H          7.89929       -3.25988       -0.23787
H          5.30042       -2.09291       -2.70594
H          6.81626       -1.65336       -1.92107
H          6.76822       -2.99601       -3.06386
H          5.54119       -5.18420       -2.39993
H          4.78052       -5.29967       -0.81227
H          4.09365       -4.24607       -2.04512
C          5.66675       -3.27257        4.27159
C          5.50107       -1.84829        3.71075
C          4.57125       -1.05856        4.65342
C          6.86852       -1.14169        3.67155
H          4.70971       -3.79377        4.28523
H          6.35833       -3.85864        3.66749
H          6.05255       -3.24818        5.29059
H          4.98992       -1.00909        5.65839
H          4.43346       -0.03600        4.30278
H          3.59252       -1.53207        4.72733
H          7.29032       -1.05245        4.67252
H          7.58132       -1.69096        3.05764
H          6.77123       -0.13910        3.25544
C          1.91577        5.89965       -0.25877
C          1.29480        4.60810        0.30773
C          1.58270        4.55519        1.81967
C         -0.22341        4.65853        0.06936
H          1.71682        5.99563       -1.32602
H          1.49691        6.77727        0.23359
H          2.99432        5.91756       -0.10318
H          2.65458        4.48763        2.00439
H          1.21040        5.44817        2.32091
H          1.11057        3.68960        2.28122
H         -0.44347        4.71614       -0.99595
H         -0.71164        3.77261        0.46928
H         -0.66763        5.52991        0.54980
C          5.15691        1.07645       -3.33252
C          4.55364        2.44130       -2.94748
C          5.68209        3.31976       -2.37428
C          3.97703        3.10014       -4.21235
H          5.58631        0.58198       -2.46156
H          4.40367        0.42001       -3.76610
H          5.95099        1.19741       -4.06918
H          5.32735        4.32329       -2.14299
H          6.07921        2.88487       -1.45721
H          6.50234        3.41382       -3.08575
H          4.74978        3.23490       -4.96899
H          3.19078        2.48210       -4.64259
H          3.55122        4.07798       -3.99015
H         -1.51054       -1.16008       -4.07133
H          2.34750       -0.02487       -4.92515
H         -2.36164       -2.68444       -3.85828
H         -0.88857       -2.63113       -4.82547
H          0.95637       -1.06474       -5.21916
H          1.98796       -1.34184       -3.81260
