45
-71.81650945
C          0.41467        0.48704        2.53537
P          0.97198        0.57868        0.79981
P         -1.58508        0.39352       -1.01052
C         -2.33080        0.16970       -2.65999
Cl         1.60805       -2.49384        0.46469
H         -0.66853        0.55594        2.57849
H         -2.72860       -0.83701       -2.75054
Cl        -1.01692       -2.68222       -1.67593
C          0.34739        2.06571       -0.00593
C         -0.76198        1.98712       -0.81841
C         -1.25699        3.12175       -1.42789
C         -0.62573        4.33740       -1.23043
C          0.49147        4.41426       -0.42104
C          0.97940        3.27538        0.19530
H         -2.13594        3.05218       -2.04778
H         -1.00823        5.22513       -1.70671
H          0.98253        5.36107       -0.26748
H          1.84929        3.31903        0.83089
Pd         0.00129       -1.17247       -0.37100
H         -1.57828        0.32149       -3.42848
H          0.84298        1.30550        3.10686
H         -3.13802        0.88181       -2.80533
C         -4.51537       -0.31392        2.38826
C         -4.18933       -1.34513        1.52893
C         -3.30610       -1.11947        0.48916
C         -2.76402        0.13269        0.31374
C         -3.07591        1.16114        1.17258
C         -3.95857        0.93835        2.21394
H         -5.20295       -0.48803        3.19977
H         -4.61562       -2.32455        1.67105
H         -3.00929       -1.91675       -0.17401
H         -2.62643        2.13010        1.02699
H         -4.20963        1.74054        2.88827
C          5.47630        0.27139        0.23813
C          4.65221        0.55212       -0.83359
C          3.28498        0.64842       -0.64390
C          2.75375        0.46716        0.61290
C          3.57070        0.18306        1.68341
C          4.93783        0.08600        1.49621
H          6.54126        0.19336        0.09183
H          5.07116        0.69276       -1.81641
H          2.62628        0.86262       -1.47124
H          3.13911        0.03141        2.65927
H          5.58098       -0.13836        2.33128
H          0.72345       -0.45681        2.97560
