59
-75.79778615
Cl         1.66676        0.39860        2.34701
P          1.58103       -0.13343       -0.77669
P         -1.58880       -0.00134       -0.78857
C          0.65663       -0.55334       -2.32069
H          1.28914       -0.33299       -3.18535
H          0.51079       -1.63584       -2.30536
C         -0.66521        0.16748       -2.37923
H         -1.29766       -0.18897       -3.19728
H         -0.51911        1.23854       -2.53705
C          2.90178       -1.38099       -0.43691
H          3.08870       -1.89185       -1.38941
C          2.59930        1.41443       -0.82602
H          2.33747        1.97559        0.07952
C         -2.57943       -1.55262       -0.57030
H         -2.29952       -1.95218        0.41228
C         -2.92991        1.26314       -0.65453
H         -3.13334        1.60064       -1.67818
C          4.10644       -0.50672       -0.04653
H          4.10984       -0.37874        1.04489
H          5.04895       -1.02209       -0.28698
C          4.04364        0.88778       -0.72922
H          4.46259        0.81579       -1.74231
H          4.68020        1.61134       -0.19764
C         -4.03231       -1.04105       -0.54510
H         -4.46265       -1.14868       -1.55022
H         -4.65000       -1.67467        0.10935
C         -4.11475        0.44761       -0.10762
H         -4.10621        0.50640        0.98971
H         -5.06868        0.89902       -0.42072
C          2.48792       -2.38962        0.62844
H          2.26035       -1.85067        1.55698
H          3.34848       -3.02869        0.87071
C          2.32479        2.26098       -2.06304
H          2.56796        1.67260       -2.95723
H          1.24845        2.46269       -2.13281
C         -2.30251       -2.58755       -1.65408
H         -2.56329       -2.15811       -2.63004
H         -1.22401       -2.78287       -1.70262
C         -2.52779        2.44536        0.21976
H         -3.40004        3.09840        0.36263
H         -2.27910        2.07538        1.22273
C          1.29986       -3.24504        0.21617
H          1.50931       -3.79721       -0.70186
H          0.41735       -2.63200        0.02925
H          1.03198       -3.97300        0.98527
C          3.09670        3.57206       -2.06754
H          4.17410        3.39916       -2.04384
H          2.84912        4.17707       -1.19320
H          2.88080        4.17214       -2.95451
C         -3.05277       -3.89261       -1.43332
H         -4.13261       -3.73415       -1.42579
H         -2.78721       -4.34130       -0.47415
H         -2.83508       -4.62762       -2.21165
C         -1.36377        3.24350       -0.34734
H         -1.59572        3.62904       -1.34187
H         -1.10459        4.09591        0.28468
H         -0.46919        2.62663       -0.44176
Cl        -1.62246       -0.00909        2.42890
Pd        -0.00563        0.10213        0.88107
