111
-148.55355087
P         -1.70836        2.76295        0.00816
P         -0.40518       -0.06771        0.53165
C         -1.62682        2.10509        1.69805
C         -1.12534        0.83890        1.91261
C         -0.63216        4.25557       -0.16840
C          0.46872        3.99176       -1.17444
C         -2.03925        2.87016        2.77029
H         -2.39699        3.87263        2.60204
C         -1.97097        2.35326        4.05263
H         -2.29682        2.94900        4.88962
C         -1.48090        1.07828        4.26207
H         -1.42275        0.67854        5.26106
C         -1.04641        0.32172        3.18842
H         -0.62843       -0.66187        3.33554
Pd        -1.24586        0.96084       -1.36095
Cl        -2.50888        1.82382       -2.99331
Cl        -0.54722       -0.87283       -2.46410
C         -1.61742        5.36569       -0.58965
C         -3.35616        3.50515       -0.39329
H          0.04574        3.73185       -2.14711
H          1.10371        4.87008       -1.31297
H          1.10422        3.15920       -0.86411
H         -1.53543        5.51367       -1.67512
H         -1.32548        6.32701       -0.14080
H         -3.54159        3.27303       -1.44993
C         -3.08951        5.01234       -0.23166
C         -4.47056        2.95046        0.46815
H         -0.22109        4.45570        0.82974
H         -3.29850        5.30204        0.80723
H         -3.79440        5.59317       -0.84621
H         -4.54510        1.86527        0.36668
H         -4.29964        3.16870        1.52268
H         -5.43622        3.38323        0.19711
C         -1.02365       -4.57614        0.60551
C          0.20109       -4.03279        1.07128
C          0.36592       -2.65784        1.03513
C         -0.65021       -1.83624        0.62246
C         -1.87023       -2.34900        0.26881
C         -2.10315       -3.71453        0.28330
O         -1.15508       -5.98017        0.43409
C          1.35346       -4.91575        1.57585
H          1.30177       -2.20665        1.31559
H         -2.63873       -1.66134       -0.04141
C         -3.50041       -4.23352       -0.09074
C          3.89512        1.31363       -0.04892
C          3.42621        0.17372       -0.75120
C          2.11125       -0.21720       -0.56245
C          1.31063        0.41500        0.35076
C          1.79033        1.45282        1.10699
C          3.09091        1.90393        0.95937
O          5.14773        1.89388       -0.38274
C          4.29840       -0.61945       -1.73611
H          1.67834       -1.00250       -1.15720
H          1.12426        1.92249        1.80889
C          3.60379        3.03371        1.86648
C          2.23757       -4.14332        2.58107
C          0.81413       -6.15639        2.31067
C          2.22876       -5.34273        0.38791
C         -4.58813       -3.21271        0.31532
C         -3.57105       -4.44284       -1.61125
C         -3.82438       -5.54601        0.64563
C         -0.80240       -6.44366       -0.86342
H          2.78727       -3.33727        2.09697
H          1.63351       -3.71682        3.38149
H          2.97504       -4.80486        3.03511
H          1.62807       -6.75353        2.72101
H          0.16137       -5.86237        3.13191
H          0.24200       -6.79533        1.64234
H          3.07252       -5.94634        0.72140
H          1.66181       -5.92831       -0.33092
H          2.62185       -4.47078       -0.13314
H         -4.53392       -2.30499       -0.28376
H         -5.58403       -3.63089        0.17073
H         -4.48955       -2.93830        1.36527
H         -4.55561       -4.80037       -1.91149
H         -3.37561       -3.50856       -2.13719
H         -2.83331       -5.16821       -1.94511
H         -3.73702       -5.41238        1.72335
H         -4.83872       -5.87829        0.42609
H         -3.14720       -6.34437        0.35370
H         -0.43899       -5.61788       -1.47649
H         -0.02734       -7.20535       -0.77959
H         -1.67083       -6.89660       -1.34105
C          5.07599        2.86142       -1.42273
C          5.78757       -0.54789       -1.35230
C          3.90567       -2.11431       -1.71811
C          4.08723       -0.06899       -3.15453
C          5.10286        2.85527        2.16777
C          3.36025        4.39095        1.18989
C          2.86331        3.02494        3.22328
H          6.16716        0.46842       -1.41606
H          5.93718       -0.89592       -0.33078
H          6.39285       -1.16726       -2.01376
H          4.59379       -2.70313       -2.32415
H          3.93523       -2.50592       -0.70184
H          2.90672       -2.27675       -2.11957
H          3.04133       -0.15443       -3.44858
H          4.36197        0.98171       -3.21410
H          4.68788       -0.61703       -3.87992
H          5.69995        2.93079        1.26210
H          5.45700        3.61794        2.86086
H          5.29143        1.87867        2.61234
H          2.29649        4.55174        1.02067
H          3.72782        5.20759        1.81071
H          3.86272        4.44895        0.22767
H          1.81604        3.30297        3.11239
H          3.31200        3.73923        3.91323
H          2.91030        2.03895        3.68479
H          5.51046        3.79933       -1.07688
H          5.64754        2.51918       -2.28509
H          4.03907        3.02670       -1.71818
