111
-148.55681065
P         -2.12685        2.49593        0.16334
P         -0.14266        0.05959        0.57356
C         -1.64786        1.99872        1.83638
C         -0.80872        0.92043        2.00944
C         -1.82543        4.30015       -0.10453
C         -0.66534        4.51105       -1.05320
C         -2.11249        2.69490        2.93343
H         -2.76260        3.54258        2.78882
C         -1.73718        2.30139        4.20648
H         -2.09984        2.84298        5.06481
C         -0.89786        1.21690        4.37784
H         -0.60402        0.91209        5.36874
C         -0.42922        0.52537        3.27474
H          0.23624       -0.31614        3.38876
Pd        -1.10520        1.02877       -1.29114
Cl        -2.26089        2.05091       -2.92103
Cl        -0.04242       -0.47430       -2.57120
C         -3.18220        4.80951       -0.62735
C         -3.95511        2.42456       -0.12000
H         -0.47582        5.57344       -1.22407
H          0.25101        4.05934       -0.66555
H         -0.87092        4.05156       -2.02192
H         -3.15467        4.81880       -1.72564
H         -3.34074        5.85642       -0.32732
H         -4.08720        1.97527       -1.11333
C         -4.35801        3.91007       -0.15014
C         -4.65559        1.59590        0.93600
H         -1.60647        4.72669        0.88314
H         -4.66737        4.21421        0.85922
H         -5.24508        4.05279       -0.78589
H         -4.26121        0.57760        0.96639
H         -4.51541        2.02886        1.92757
H         -5.73067        1.53846        0.75062
C         -1.23607       -4.35796        0.50957
C          0.01731       -3.96594        1.04646
C          0.34116       -2.61903        1.04577
C         -0.55001       -1.68090        0.59455
C         -1.80351       -2.04440        0.17664
C         -2.19239       -3.37342        0.15288
O         -1.52013       -5.73484        0.30600
C          1.02830       -4.98387        1.59825
H          1.30158       -2.28243        1.39477
H         -2.47779       -1.26840       -0.14396
C         -3.62243       -3.72037       -0.29021
C          4.21178        1.19179       -0.12322
C          3.74110       -0.06616       -0.57946
C          2.41226       -0.38879       -0.36089
C          1.58979        0.44638        0.34732
C          2.06129        1.62463        0.86578
C          3.37987        2.00837        0.68495
O          5.50053        1.65126       -0.50473
C          4.63073       -1.06153       -1.34029
H          1.99034       -1.28985       -0.77041
H          1.37467        2.25073        1.40921
C          3.87727        3.30703        1.33927
C          1.93938       -4.33193        2.66289
C          0.30660       -6.15932        2.28215
C          1.91219       -5.50027        0.45304
C         -4.13043       -4.99167        0.41351
C         -4.60039       -2.58128        0.08008
C         -3.64814       -3.90740       -1.81495
C         -1.15936       -6.21975       -0.98129
H          1.34574       -3.84632        3.43700
H          2.56821       -5.08057        3.14429
H          2.60540       -3.59077        2.22337
H         -0.35315       -5.79824        3.07040
H         -0.29707       -6.72036        1.57289
H          1.02040       -6.85182        2.72755
H          2.65497       -6.20747        0.82128
H          1.32029       -6.00219       -0.30782
H          2.43897       -4.67714       -0.02769
H         -4.07790       -4.87755        1.49573
H         -5.16529       -5.20162        0.14430
H         -3.53755       -5.86110        0.14163
H         -4.51512       -2.32456        1.13569
H         -4.41577       -1.68397       -0.50872
H         -5.63124       -2.87965       -0.10941
H         -4.65326       -4.14419       -2.16281
H         -3.32140       -2.99813       -2.31914
H         -2.98618       -4.71177       -2.12581
H         -2.04933       -6.56542       -1.50660
H         -0.67569       -5.43340       -1.56226
H         -0.48013       -7.06540       -0.87438
C          5.51685        2.38918       -1.72044
C          6.09658       -0.96612       -0.87994
C          4.17188       -2.51343       -1.07462
C          4.52607       -0.78283       -2.84743
C          3.08936        3.60132        2.63654
C          5.36178        3.19420        1.73113
C          3.67311        4.47998        0.36855
H          6.52207        0.00822       -1.10570
H          6.17143       -1.12166        0.19579
H          6.71229       -1.71670       -1.37494
H          4.87337       -3.22662       -1.50690
H          4.11197       -2.70967       -0.00444
H          3.19795       -2.71569       -1.51762
H          5.13620       -1.48267       -3.41776
H          3.49455       -0.88005       -3.18536
H          4.85742        0.22485       -3.08626
H          2.05104        3.85629        2.42901
H          3.10485        2.73986        3.30372
H          3.52482        4.44572        3.17035
H          5.99421        3.06419        0.85643
H          5.69913        4.09034        2.25133
H          5.52118        2.34005        2.38839
H          4.22695        4.32973       -0.55474
H          4.00816        5.41692        0.81279
H          2.62024        4.58726        0.10968
H          5.93599        3.37908       -1.54069
H          6.14731        1.88109       -2.44984
H          4.50641        2.48761       -2.11927
