64
-97.20847102
Cl        -1.56225       -1.46678       -2.57671
Cl         1.59796       -1.33308       -2.91517
P          1.96516       -0.65967        0.22272
C          2.20096       -2.34615        0.94878
C          3.73774       -0.21154       -0.09928
P         -1.29520       -0.13727        0.41661
C          1.28174        0.53098        1.43067
C         -0.14246        0.79395        1.49630
C         -0.35485        1.89983        2.41873
C          0.94558        2.33119        2.90062
C          1.95779        1.47842        2.30258
H         -1.31328        2.35581        2.67076
H          1.12920        3.14346        3.60766
Pd         0.16488       -0.96522       -1.23192
H          3.03623        1.54673        2.45865
C         -4.86385        2.46940       -0.69190
C         -4.17396        1.79819       -1.68166
C         -3.10299        0.99187       -1.34639
C         -2.71521        0.87131       -0.03131
C         -3.41574        1.52050        0.95990
C         -4.49135        2.32578        0.63004
H         -5.70083        3.09747       -0.95034
H         -4.47392        1.89494       -2.71224
H         -2.58264        0.42878       -2.10245
H         -3.13049        1.38094        1.98988
H         -5.03816        2.83811        1.40458
C         -2.77995       -3.92564        2.43130
C         -2.40338       -2.84130        3.20027
C         -1.95606       -1.68418        2.58778
C         -1.88753       -1.62437        1.21517
C         -2.26576       -2.69884        0.44505
C         -2.71335       -3.85668        1.05325
H         -3.12829       -4.82745        2.90790
H         -2.45679       -2.89567        4.27522
H         -1.65435       -0.82904        3.17162
H         -2.20552       -2.62053       -0.62876
H         -3.00866       -4.70142        0.45286
C          4.07719       -0.22586       -1.57307
H          3.89180        0.79183        0.31881
C          4.51003       -1.27271        0.70902
H          4.71253       -0.89730        1.72288
C          3.71364       -2.60162        0.80181
H          5.49577       -1.44154        0.25138
C          1.71620       -2.37132        2.38203
H          1.61887       -3.04474        0.33210
H          4.06845       -3.20846        1.64728
H          3.90625       -3.20501       -0.09720
H          2.26684       -1.64720        2.98583
H          0.65715       -2.11406        2.44736
H          1.85271       -3.35596        2.83545
H          5.12800        0.01756       -1.74483
H          3.89387       -1.21449       -1.99687
H          3.47177        0.48791       -2.13416
Fe         0.85315        2.42716        0.85500
C          1.41210        4.22335        0.08029
C         -0.00436        4.00009       -0.15467
C         -0.13797        2.76838       -0.91061
C          1.18792        2.24372       -1.17126
C          2.14536        3.13069       -0.53817
H          1.84960        5.07126        0.61269
H         -0.82317        4.64303        0.17624
H         -1.07549        2.33593       -1.26058
H          1.41872        1.35662       -1.76406
H          3.23268        3.02847       -0.57128
