45
-71.81519321
C          0.35743        0.43196        2.52532
P          0.96195        0.54845        0.80742
P         -1.61335        0.38342       -1.02123
C         -2.41559        0.19018       -2.64760
Cl         1.68019       -2.46736        0.29831
H          0.65344       -0.51839        2.96027
H         -3.22744        0.90431       -2.75141
Cl        -1.16730       -2.66732       -1.60566
C          0.33969        2.03520       -0.00488
C         -0.76634        1.96547       -0.82410
C         -1.24851        3.10414       -1.43615
C         -0.60889        4.31485       -1.23571
C          0.50383        4.38312       -0.41968
C          0.97900        3.24047        0.19958
H         -2.12487        3.04188       -2.06056
H         -0.98162        5.20537       -1.71451
H          1.00153        5.32601       -0.26343
H          1.84571        3.27788        0.84001
Pd         0.02150       -1.15741       -0.44781
H         -2.81656       -0.81492       -2.74215
H         -0.72641        0.50114        2.54052
H         -1.69046        0.35630       -3.43913
C         -4.43678       -0.30799        2.47153
C         -4.10089       -1.35552        1.63623
C         -3.25166       -1.13617        0.56755
C         -2.75202        0.12475        0.33886
C         -3.07536        1.17020        1.17263
C         -3.92406        0.95433        2.24329
H         -5.09749       -0.47689        3.30613
H         -4.49291       -2.34238        1.81956
H         -2.94856       -1.94438       -0.07878
H         -2.65975        2.14720        0.98566
H         -4.18259        1.76976        2.89866
C          5.48405        0.29747        0.37593
C          4.69392        0.63517       -0.70489
C          3.32061        0.71441       -0.55564
C          2.74940        0.46030        0.67060
C          3.53245        0.11852        1.74954
C          4.90559        0.03809        1.60275
H          6.55370        0.23234        0.26088
H          5.14412        0.83325       -1.66370
H          2.68832        0.97167       -1.39123
H          3.06981       -0.09179        2.70000
H          5.52213       -0.23148        2.44450
H          0.77052        1.24174        3.11990
