111
-148.55576688
P         -1.49101        2.64351        1.19248
P         -0.32887       -0.23152        0.55205
C         -0.96099        1.55767        2.54821
C         -0.52470        0.27919        2.27014
C         -0.38269        4.11621        1.05375
C          0.40896        4.06956       -0.23624
C         -0.96765        2.01240        3.85132
H         -1.27167        3.02521        4.05943
C         -0.56219        1.17434        4.87573
H         -0.57132        1.52780        5.89388
C         -0.14043       -0.11129        4.59498
H          0.17996       -0.76149        5.39232
C         -0.11152       -0.55716        3.28568
H          0.24728       -1.54548        3.04421
Pd        -1.64941        1.24120       -0.63516
Cl        -2.79775        2.88271       -1.64387
Cl        -1.67795       -0.21846       -2.34154
C         -1.35795        5.30610        1.15619
C         -3.11308        3.48112        1.50383
H         -0.26093        4.03854       -1.09793
H          1.04976        4.94774       -0.34460
H          1.04269        3.18154       -0.28457
H         -1.58360        5.66293        0.14190
H         -0.87538        6.15414        1.66513
H         -3.63618        3.48259        0.53850
C         -2.68449        4.91388        1.86838
C         -3.94841        2.77322        2.54955
H          0.28107        4.08169        1.92755
H         -2.55284        4.97976        2.95713
H         -3.48728        5.62663        1.62494
H         -4.91272        3.26695        2.68946
H         -4.13716        1.73474        2.26790
H         -3.44467        2.76314        3.51636
C         -0.79368       -4.71098       -0.11814
C         -1.89191       -3.95294        0.36329
C         -1.70920       -2.59700        0.58425
C         -0.52012       -1.98798        0.27997
C          0.50731       -2.69571       -0.28728
C          0.38989       -4.05231       -0.53801
O         -0.86709       -6.12914       -0.14755
C         -3.26062       -4.58489        0.66158
H         -2.49699       -1.99326        1.00141
H          1.41209       -2.16884       -0.53510
C          1.54280       -4.78298       -1.24445
C          3.63740        1.37946       -1.01117
C          3.33359        1.47767        0.37308
C          2.14060        0.93646        0.82168
C          1.24032        0.38786       -0.05377
C          1.46984        0.41495       -1.40403
C          2.63978        0.94089       -1.92197
O          4.95284        1.64267       -1.47201
C          4.24130        2.17198        1.40197
H          1.90018        0.94208        1.87069
H          0.69903        0.04289       -2.05711
C          2.75644        1.05895       -3.45052
C         -3.29170       -5.06786        2.11935
C         -4.39330       -3.55315        0.45800
C         -3.54825       -5.75883       -0.29227
C          2.27666       -3.82877       -2.21490
C          2.54602       -5.28523       -0.19548
C          1.02026       -5.96110       -2.08655
C         -0.40706       -6.75764        1.04214
H         -3.11663       -4.23823        2.80395
H         -4.25734       -5.50970        2.36381
H         -2.52406       -5.81582        2.30287
H         -4.35943       -2.76387        1.20744
H         -4.32602       -3.09406       -0.52801
H         -5.37002       -4.02953        0.53957
H         -3.48141       -5.43446       -1.33020
H         -2.83753       -6.56913       -0.14975
H         -4.54636       -6.16344       -0.12641
H          3.00909       -4.37154       -2.81197
H          1.57122       -3.35712       -2.89840
H          2.81559       -3.04585       -1.68334
H          3.38138       -5.80020       -0.66924
H          2.94665       -4.45347        0.38357
H          2.07583       -5.97636        0.50013
H          0.27418       -5.61875       -2.80289
H          1.82944       -6.43683       -2.64006
H          0.55797       -6.72135       -1.46199
H         -1.20516       -7.36811        1.46431
H          0.43418       -7.41036        0.80979
H         -0.09607       -6.00941        1.77229
C          5.77170        0.48547       -1.47338
C          3.39259        3.11421        2.28452
C          4.90726        1.11005        2.29188
C          5.32515        3.03696        0.73568
C          1.46414        1.69367       -4.01207
C          3.92560        1.96087       -3.88154
C          2.93714       -0.34173       -4.05784
H          4.02286        3.66284        2.98391
H          2.86300        3.84151        1.67024
H          2.65608        2.56843        2.87184
H          5.52575        0.43602        1.70197
H          5.54187        1.57557        3.04553
H          4.15875        0.50932        2.80773
H          6.02516        2.42520        0.17136
H          4.87632        3.75226        0.04730
H          5.89692        3.59219        1.47887
H          1.54794        1.86109       -5.08543
H          0.59572        1.05735       -3.85071
H          1.26928        2.65422       -3.53594
H          3.93209        2.10681       -4.96144
H          3.85195        2.93843       -3.40628
H          4.88230        1.52571       -3.60241
H          3.84042       -0.81911       -3.68195
H          3.01091       -0.28908       -5.14369
H          2.09279       -0.98407       -3.81045
H          6.75939        0.74413       -1.85560
H          5.86805        0.09588       -0.46103
H          5.33013       -0.28370       -2.10555
