59
-75.80564195
Cl         1.53228        0.39680        2.35479
P          1.48715        0.04564       -0.86217
P         -1.71000       -0.14940       -0.78524
C          0.46319        0.29079       -2.37947
H          0.16809        1.34182       -2.43165
H          1.07796        0.07730       -3.25944
C         -0.74719       -0.59397       -2.29555
H         -0.45298       -1.64378       -2.21868
H         -1.39967       -0.49576       -3.16882
C          2.68433       -1.34946       -1.11134
H          2.78939       -1.40788       -2.20349
C          2.69717        1.42139       -0.55045
H          2.53528        1.73697        0.48730
C         -3.04581       -1.37610       -0.41377
H         -3.19070       -1.34450        0.67318
C         -2.76699        1.33793       -1.12867
H         -2.52255        1.66078       -2.14780
C          3.98613       -0.79418       -0.51074
H          4.02106       -1.02692        0.56100
H          4.85902       -1.29864       -0.95274
C          4.07341        0.74401       -0.69701
H          4.47151        0.96459       -1.69672
H          4.79386        1.18304        0.00941
C         -4.26060       -0.75746       -1.12339
H         -4.26250       -1.08499       -2.17259
H         -5.19634       -1.14320       -0.68982
C         -4.21035        0.79292       -1.05723
H         -4.66416        1.12589       -0.11379
H         -4.82873        1.23851       -1.85069
C          2.23359       -2.70819       -0.57217
H          2.92686       -3.48011       -0.93454
H          1.26775       -2.95972       -1.02879
C          2.49403        2.60282       -1.49242
H          2.63336        2.25898       -2.52581
H          1.45097        2.93832       -1.43891
C         -2.70546       -2.79612       -0.84685
H         -3.60863       -3.41899       -0.78471
H         -2.43408       -2.78998       -1.91017
C         -2.50411        2.46650       -0.13565
H         -3.31066        3.20865       -0.21809
H         -2.58480        2.06275        0.88256
C          2.13119       -2.80491        0.94342
H          3.10772       -2.71872        1.42204
H          1.70496       -3.75910        1.26222
H          1.50339       -2.01740        1.35704
C          3.42485        3.76834       -1.19192
H          4.47219        3.47577       -1.28498
H          3.28248        4.13204       -0.17250
H          3.25895        4.61050       -1.86767
C         -1.59282       -3.40793       -0.01066
H         -0.69811       -2.78608       -0.03464
H         -1.31440       -4.40534       -0.35818
H         -1.88790       -3.49334        1.03694
C         -1.15954        3.14808       -0.32925
H         -0.33743        2.44477       -0.20119
H         -1.07148        3.57032       -1.33206
H         -1.00476        3.96023        0.38472
Cl        -1.66038       -0.30807        2.41019
Pd        -0.07997       -0.00439        0.84817
