72
-108.40475680
Cl        -1.81021        0.82338        2.64721
Cl         0.94098       -0.84473        2.74721
P          1.12899       -1.14352       -0.25475
P         -2.25949        0.15651       -0.40714
C         -3.27473       -1.43332       -0.19870
C         -3.66597       -1.58866        1.27223
C         -4.51988       -1.37576       -1.07630
C         -3.32762        1.71623       -0.17899
C         -4.10983        2.01786       -1.46382
C         -1.40648        0.44335       -2.06646
C         -1.45882       -0.72241       -3.03187
C          1.16284        0.20176       -1.48001
C          0.01451        0.97127       -1.96059
C          0.54172        2.05165       -2.79660
C          1.98695        1.94014       -2.82887
C          2.36845        0.78674       -2.03660
C         -2.41858       -2.63269       -0.58254
H         -4.17928       -2.53802        1.43360
H         -2.78891       -1.57693        1.91940
H         -5.06071       -2.32271       -1.03666
H         -4.26692       -1.18391       -2.11804
C         -4.31161        1.58701        0.97973
H         -4.60611        1.13128       -1.85414
H         -3.47112        2.42250       -2.24807
H         -1.99603        1.25474       -2.50323
H         -0.82443       -1.53404       -2.68312
H         -1.07753       -0.43383       -4.01357
H         -2.47055       -1.10087       -3.17322
H         -0.05933        2.75702       -3.37356
H          2.66755        2.58328       -3.39133
Pd        -0.53831       -0.25349        1.15414
H          3.38350        0.43608       -1.83813
C         -2.35349        2.85073        0.10219
H         -4.87819        2.76932       -1.27442
H         -3.81185        1.28294        1.89706
H         -4.79411        2.54523        1.17774
H         -5.10392        0.87512        0.75583
H         -1.57684        2.89810       -0.66246
H         -2.86880        3.81315        0.11959
H         -1.87897        2.71568        1.07294
H         -4.33867       -0.80363        1.60666
H         -5.20741       -0.59929       -0.74524
H         -1.49660       -2.64201       -0.00414
H         -2.94485       -3.56598       -0.37506
H         -2.16781       -2.63895       -1.64004
C          2.80202       -1.25818        0.43546
C          3.24714       -2.26726        1.25292
C          4.57486       -1.98225        1.57133
C          4.88799       -0.80896        0.93097
O          3.80909       -0.35424        0.22956
H          2.66970       -3.10873        1.59802
H          5.22591       -2.56691        2.20053
H          5.84515       -0.30359        0.96782
C          0.72981       -2.74848       -0.97114
C          0.61048       -3.89621       -0.22676
C          0.29943       -4.92779       -1.11371
C          0.24250       -4.36481       -2.36509
O          0.50102       -3.02566       -2.29130
H          0.71608       -3.97293        0.84348
H          0.13554       -5.96352       -0.86479
H          0.02329       -4.89107       -3.28584
Fe         1.33883        2.10834       -0.89583
C          2.24404        3.85431       -0.38885
C          3.01258        2.72792        0.11162
C          2.14886        1.95176        0.97914
C          0.86269        2.61165        1.04161
C          0.91480        3.78645        0.19200
H          2.61414        4.63781       -1.05441
H          4.05441        2.49832       -0.12335
H          2.42089        1.03883        1.51236
H          0.03110        2.29431        1.67286
H          0.11701        4.51983        0.05417
