45
-71.81513311
C          0.32611        0.56745        2.48859
P          0.94832        0.60770        0.77360
P         -1.62765        0.27430       -1.04591
C         -2.42946       -0.03353       -2.65458
Cl         1.76533       -2.40212        0.38259
H         -0.75998        0.55856        2.48741
H         -3.25800        0.65431       -2.79695
Cl        -1.13899       -2.80093       -1.39227
C          0.29350        2.02448       -0.13280
C         -0.81018        1.88139       -0.94602
C         -1.31435        2.96988       -1.62768
C         -0.69931        4.20336       -1.50356
C          0.41146        4.34465       -0.69433
C          0.90891        3.25254       -0.00526
H         -2.18883        2.85136       -2.24657
H         -1.08961        5.05465       -2.03666
H          0.89024        5.30516       -0.59771
H          1.77472        3.34695        0.63053
Pd         0.05235       -1.18200       -0.39325
H         -2.80718       -1.05146       -2.68764
H          0.67002        1.44417        3.02987
H         -1.71069        0.10214       -3.45764
C         -4.43069       -0.24759        2.49305
C         -3.94261        1.00694        2.18278
C         -3.10021        1.16975        1.09782
C         -2.75784        0.07934        0.33192
C         -3.23247       -1.17347        0.64319
C         -4.07592       -1.33994        1.72582
H         -5.08671       -0.37515        3.33862
H         -4.21530        1.85764        2.78545
H         -2.70383        2.14053        0.84748
H         -2.91423       -2.01595        0.05037
H         -4.44871       -2.32031        1.97302
C          5.48112        0.49226        0.40673
C          4.90405        0.50597        1.66125
C          3.52707        0.54443        1.78750
C          2.73876        0.57078        0.65954
C          3.30883        0.55697       -0.59300
C          4.68595        0.51741       -0.72180
H          6.55390        0.45920        0.30828
H          5.52505        0.48361        2.54170
H          3.06611        0.55056        2.76172
H          2.67301        0.57416       -1.46461
H          5.13535        0.50279       -1.70111
H          0.68336       -0.32670        2.99149
