75
-122.81851007
P          1.85519       -0.56138       -0.00346
C          3.19299       -1.26629       -0.98017
C          2.96817       -1.77377       -2.23907
C          4.01361       -2.32907       -2.95353
C          5.27660       -2.38079       -2.39813
C          5.49542       -1.88354       -1.12889
C          4.44739       -1.32841       -0.41679
H          4.59861       -0.95101        0.58263
H          6.47932       -1.92963       -0.69179
H          6.09216       -2.81240       -2.95513
H          3.84185       -2.71882       -3.94342
H          1.97832       -1.72861       -2.66313
C          1.70912       -1.57882        1.47048
C          1.69540       -1.00755        2.72213
C          1.67167       -1.81275        3.84570
C          1.66128       -3.18650        3.70660
C          1.67014       -3.75583        2.44859
C          1.69650       -2.94724        1.32637
H          1.72155       -3.37604        0.33680
H          1.65821       -4.82782        2.33991
H          1.63869       -3.81546        4.58151
H          1.65638       -1.36782        4.82699
H          1.69616        0.06595        2.81420
C          2.22010        1.14430        0.44088
C          3.38201        1.79481        0.09738
C          3.54721        3.14280        0.38198
C          2.50785        3.82627        1.01243
C          1.33237        3.19028        1.34513
C          1.18517        1.82184        1.06753
O         -0.00254        1.13815        1.37541
C         -1.19399        1.81467        1.06623
C         -1.34806        3.18313        1.33987
C         -2.52460        3.81308        0.99970
C         -3.56263        3.12114        0.37691
C         -3.38694        1.77504        0.08796
C         -2.22420        1.13013        0.43928
P         -1.85072       -0.57679        0.00662
C         -1.70341       -1.58374        1.48815
C         -1.63552       -1.00206        2.73322
C         -1.61123       -1.79684        3.86411
C         -1.65349       -3.17130        3.73918
C         -1.71550       -3.75169        2.48777
C         -1.74279       -2.95317        1.35838
H         -1.80915       -3.39038        0.37444
H         -1.74463       -4.82438        2.38986
H         -1.63025       -3.79236        4.61969
H         -1.55357       -1.34343        4.83993
H         -1.59260        0.07136        2.81432
C         -3.18358       -1.29424       -0.96746
C         -4.44247       -1.34320       -0.41285
C         -5.48631       -1.90878       -1.12285
C         -5.25877       -2.43007       -2.38085
C         -3.99121       -2.39217       -2.92688
C         -2.94996       -1.82632       -2.21454
H         -1.95639       -1.79264       -2.63093
H         -3.81258       -2.80115       -3.90776
H         -6.07106       -2.86985       -2.93623
H         -6.47377       -1.94420       -0.69284
H         -4.60053       -0.94773        0.57849
Pd        -0.00554       -0.06868       -1.38501
Cl        -1.56853        0.88570       -2.70945
Cl         1.56795        0.93586       -2.66360
H         -4.15466        1.23779       -0.44002
C         -4.80738        3.82513       -0.03073
H         -5.66646        3.15368        0.00062
H         -4.71761        4.20979       -1.04739
H         -5.01927        4.66604        0.63085
H         -2.63426        4.86278        1.20767
S         -0.01154        4.06147        2.10726
H          2.61493        4.87354        1.23341
C          4.81150        3.83599        0.01697
H          4.15862        1.26017       -0.42028
H          4.71393        4.91792        0.11425
H          5.63034        3.51323        0.66124
H          5.08888        3.61925       -1.01550
