100
-131.98293005
C         -1.63576        3.78508       -1.47684
C         -2.36183        2.51031       -1.47144
C         -0.24416        3.50385       -1.54314
C         -0.04093        2.03176       -1.60870
C          1.12738        1.44136       -2.32066
C         -1.41725        1.43389       -1.56806
C         -1.82664        0.02813       -1.97842
C         -0.87209       -0.69062       -2.90879
Cl         0.92536       -0.45158        2.83383
Cl        -1.83786       -1.81030        2.30666
C          3.23895        0.41328       -3.84702
C          2.50295        1.47981       -4.32467
C          2.93779       -0.13004       -2.60645
C          1.47351        1.99039       -3.57459
C          1.89435        0.35368       -1.85307
H         -3.44652        2.40373       -1.53155
H          0.54828        4.24849       -1.64849
H          0.03905       -0.97132       -2.38124
H         -1.30948       -1.60872       -3.30840
H         -0.59202       -0.06097       -3.75679
H          4.05589        0.01622       -4.42709
H          2.73883        1.91125       -5.28401
H          3.55440       -0.92570       -2.22253
H          0.89419        2.81652       -3.94950
H         -2.09013        4.77931       -1.48438
P          1.74913       -0.30768       -0.17686
H         -2.80092        0.10833       -2.47716
P         -2.15350       -0.99549       -0.48705
H         -3.44679       -3.01598       -0.30374
C         -1.66324       -3.72950       -1.25852
C         -2.73143       -2.65793       -1.04485
C         -1.20421       -4.32564        0.07463
H         -3.20585        0.79742        0.64726
C         -4.89794       -0.05281       -0.36844
C         -3.56942       -0.19486        0.39121
H         -4.66373        0.23095       -1.40901
C         -5.70535       -1.35328       -0.39902
H          3.60430       -1.82101       -0.40271
H          2.51798        0.77537        1.84823
C          3.51913        3.26411        1.18064
C          2.69723        2.28875        0.31880
C          2.85255        0.84216        0.80787
C          4.33880        0.44782        0.76078
C          5.19876        1.40998        1.60679
C          5.00832        2.87242        1.16081
H          3.14844        3.23713        2.21279
H          3.37830        4.30030        0.84252
H          3.05114        2.34485       -0.71810
H          1.64057        2.57265        0.27477
H          4.48202       -0.58578        1.09801
H          4.67643        0.46922       -0.28217
H          4.91493        1.31362        2.66223
H          6.25905        1.12412        1.56174
H          5.40321        2.99669        0.14459
H          5.59882        3.55288        1.79059
C          2.70184       -4.31099       -1.08177
C          1.93267       -2.97420       -1.07336
C          2.56511       -1.98258       -0.09453
C          2.58475       -2.58244        1.31983
C          3.37922       -3.90248        1.34026
C          2.78905       -4.91254        0.33611
H          3.71456       -4.14340       -1.46872
H          2.23511       -5.02117       -1.77870
H          0.90431       -3.14926       -0.75027
H          1.85975       -2.54374       -2.08098
H          2.97661       -1.86143        2.04885
H          1.55490       -2.78014        1.63823
H          4.42586       -3.70020        1.08122
H          3.40367       -4.32605        2.35405
H          1.78783       -5.21040        0.66977
H          3.37987       -5.83946        0.32727
H         -0.80714       -3.24467       -1.75601
C         -2.17633       -4.83607       -2.18533
H         -3.73225       -0.72179        1.33121
C         -5.74164        1.07032        0.24561
H         -3.28481       -2.48663       -1.97016
H         -0.81484       -3.56554        0.75075
H         -0.43152       -5.08140       -0.07058
H         -2.03818       -4.80953        0.58366
H         -3.04306       -5.33200       -1.74722
H         -2.47982       -4.43917       -3.15547
H         -1.41381       -5.59718       -2.35862
H         -5.21869       -2.13304       -0.98159
H         -5.85855       -1.73599        0.61049
H         -6.69086       -1.19415       -0.83992
H         -5.97460        0.84807        1.28743
H         -5.21900        2.02732        0.22224
H         -6.68733        1.19622       -0.28385
Fe        -1.08091        2.65263        0.09889
C         -2.42934        3.03629        1.59563
C         -1.58766        4.18745        1.32295
C         -0.20520        3.81854        1.56359
C         -0.19532        2.41743        1.93382
C         -1.56093        1.93832        1.97140
H         -3.52136        3.02201        1.57946
H         -1.94263        5.18825        1.06411
H          0.66070        4.48147        1.49913
H          0.66853        1.84423        2.26917
H         -1.86627        0.94512        2.30910
Pd        -0.26810       -0.88577        0.95098
