111
-148.55103231
P         -2.36067        2.42963       -0.04633
P         -0.09001        0.28536        0.49887
C         -1.80244        2.11961        1.64916
C         -0.83421        1.16816        1.88220
C         -2.36437        4.24470       -0.39898
C         -1.52109        4.55583       -1.61580
C         -2.34302        2.82442        2.70560
H         -3.08203        3.58537        2.51500
C         -1.92737        2.55532        3.99826
H         -2.35093        3.10351        4.82392
C         -0.97499        1.58185        4.23145
H         -0.65655        1.36674        5.23819
C         -0.42697        0.88519        3.16935
H          0.31331        0.11777        3.33466
Pd        -1.29157        0.88148       -1.39446
Cl        -2.37236        1.79598       -3.13513
Cl        -0.25000       -0.72034       -2.57529
C         -3.86310        4.57016       -0.56892
C         -4.14814        2.03228       -0.34119
H         -0.49269        4.20985       -1.48576
H         -1.92518        4.05991       -2.49970
H         -1.49498        5.62838       -1.82291
H         -3.98082        5.38087       -1.30262
H         -4.26998        4.96418        0.37395
H         -4.16764        1.19163       -1.04849
C         -4.68221        3.32082       -0.99917
C         -4.86009        1.65420        0.94012
H         -1.94923        4.73798        0.49061
H         -5.74563        3.44837       -0.74941
H         -4.64385        3.22226       -2.09407
H         -5.89535        1.36021        0.75166
H         -4.35856        0.82468        1.44355
H         -4.88124        2.49608        1.63348
C         -1.01245       -4.16494        0.66407
C          0.31083       -3.71982        0.92856
C          0.57004       -2.36106        0.86047
C         -0.43804       -1.46172        0.63301
C         -1.73937       -1.87484        0.51575
C         -2.06773       -3.21977        0.56013
O         -1.26414       -5.53966        0.42144
C          1.47486       -4.65459        1.29892
H          1.57450       -1.98991        0.97233
H         -2.50347       -1.12976        0.36830
C         -3.55632       -3.59696        0.48091
C          4.37908        1.06072       -0.00936
C          3.65625        0.33835       -0.99174
C          2.29654        0.16382       -0.80475
C          1.66640        0.60968        0.32682
C          2.37980        1.22530        1.32234
C          3.74397        1.43322        1.20298
O          5.72773        1.43495       -0.25210
C          4.31438       -0.23139       -2.25833
H          1.69455       -0.31618       -1.55568
H          1.85237        1.55105        2.20030
C          4.50876        2.07137        2.37391
C          2.45391       -4.74575        0.11686
C          2.21828       -4.08279        2.52648
C          0.99586       -6.06584        1.68101
C         -4.05995       -3.37680       -0.95549
C         -3.81513       -5.05411        0.90095
C         -4.36685       -2.69940        1.44193
C         -1.10577       -5.89188       -0.94289
H          3.29460       -5.39633        0.35642
H          1.96437       -5.14217       -0.77062
H          2.85189       -3.76330       -0.13387
H          3.00543       -4.76115        2.85463
H          2.68673       -3.12489        2.30649
H          1.53033       -3.93813        3.35903
H          1.82413       -6.67980        2.03398
H          0.24767       -6.01674        2.47138
H          0.54897       -6.57473        0.83035
H         -5.12082       -3.61179       -1.03699
H         -3.92089       -2.34054       -1.26239
H         -3.52160       -4.00560       -1.66186
H         -3.35556       -5.75249        0.20564
H         -3.40267       -5.24775        1.89051
H         -4.88264       -5.27146        0.92834
H         -5.41342       -3.00204        1.46649
H         -3.97312       -2.76687        2.45568
H         -4.34004       -1.65464        1.13812
H         -1.31327       -6.95498       -1.06659
H         -1.79401       -5.31607       -1.55941
H         -0.08765       -5.68305       -1.26720
C          5.87573        2.69767       -0.88937
C          4.27935        0.82784       -3.37028
C          5.76475       -0.66567       -1.98037
C          3.55603       -1.48488       -2.75262
C          3.83230        1.72802        3.72101
C          5.95124        1.53848        2.44992
C          4.51569        3.59825        2.20578
H          4.82161        1.72412       -3.07947
H          4.72731        0.44610       -4.28732
H          3.25269        1.11865       -3.59174
H          6.38601        0.18124       -1.70005
H          5.79895       -1.38892       -1.16624
H          6.21197       -1.12514       -2.86147
H          2.56367       -1.23585       -3.12541
H          4.09294       -1.96449       -3.57062
H          3.44824       -2.21406       -1.95070
H          4.44272        2.06721        4.55765
H          2.86076        2.21010        3.81944
H          3.69433        0.65180        3.82247
H          5.95512        0.45162        2.52568
H          6.52315        1.81300        1.56714
H          6.47263        1.94105        3.31801
H          3.49817        3.98789        2.18449
H          5.00093        3.89096        1.27792
H          5.04439        4.07927        3.02832
H          4.89945        3.14598       -1.07792
H          6.46431        3.36062       -0.25547
H          6.40659        2.57096       -1.83274
