72
-108.40066698
Cl        -2.00756       -0.04997        2.74380
Cl         0.89625       -1.08197        2.74520
P          1.23701       -1.00187       -0.31374
P         -2.25945        0.15894       -0.37196
C         -3.39731       -1.36372       -0.26366
C         -4.29746       -1.24800        0.96408
C         -4.26645       -1.50608       -1.51947
C         -3.18791        1.79614       -0.08397
C         -4.49631        1.79305       -0.86835
C         -1.44120        0.41068       -2.05264
C         -1.37631       -0.80990       -2.95111
C          1.15315        0.34119       -1.53520
C         -0.06081        1.04623       -1.95399
C          0.38391        2.20550       -2.73188
C          1.82925        2.16687       -2.85168
C          2.30305        1.01016       -2.11681
C         -2.51700       -2.59995       -0.10765
H         -3.71146       -1.12044        1.87231
H         -4.99553       -0.41790        0.88108
H         -4.60427       -0.54366       -1.89762
H         -5.15170       -2.10824       -1.30792
C         -3.45490        2.00915        1.40080
H         -5.00363        2.75401       -0.76842
H         -5.18360        1.02834       -0.51217
H         -2.10025        1.13945       -2.53904
H         -2.35851       -1.14592       -3.27590
H         -0.87135       -1.63339       -2.45391
H         -0.80351       -0.59188       -3.85481
H         -0.27465        2.89550       -3.26309
H          2.44917        2.87131       -3.41077
Pd        -0.48996       -0.35129        1.11451
H          3.34258        0.70923       -1.96893
C         -2.31204        2.93920       -0.59444
H         -4.31651        1.62822       -1.93110
H         -2.51974        2.07060        1.95699
H         -3.99875        2.94012        1.56796
H         -4.04614        1.20224        1.82850
H         -2.26022        2.95949       -1.68258
H         -2.70610        3.90553       -0.27474
H         -1.29998        2.84604       -0.21240
H         -4.89170       -2.15463        1.08944
H         -3.73451       -2.01910       -2.31824
H         -3.12476       -3.50588       -0.07803
H         -1.82127       -2.69881       -0.93857
H         -1.94196       -2.56320        0.81787
C          2.93192       -1.07883        0.31678
C          3.39933       -2.06439        1.14973
C          4.73774       -1.77530        1.41615
C          5.03372       -0.62331        0.73007
O          3.93427       -0.18524        0.04984
H          2.82883       -2.89508        1.53212
H          5.40735       -2.34399        2.04050
H          5.99357       -0.12179        0.72037
C          0.81013       -2.62659       -0.95817
C          0.57441       -3.69330       -0.12732
C          0.27064       -4.78554       -0.94154
C          0.33454       -4.33686       -2.23833
O          0.66184       -3.01082       -2.26300
H          0.60672       -3.67171        0.95060
H          0.03273       -5.78495       -0.61583
H          0.15262       -4.93347       -3.12365
Fe         1.25576        2.21489       -0.88528
C          2.92053        2.60335        0.25105
C          1.89956        1.93603        1.03275
C          0.71390        2.76691        1.03962
C          0.98040        3.92120        0.20018
C          2.35026        3.83072       -0.27346
H          3.93529        2.23520        0.08470
H          2.01909        1.00183        1.58607
H         -0.18919        2.57445        1.62203
H          0.29656        4.75379        0.01876
H          2.86626        4.56473       -0.89673
