105
-153.05798537
Cl         0.04091        2.23762        2.99922
Pd        -0.35520        1.45779        0.91978
P         -0.95251        0.51603       -1.16921
N         -0.32701       -0.93327       -1.95908
C          0.40297       -2.05354       -1.56011
C          0.33467       -2.61195       -0.26227
C          1.10374       -3.75249        0.04702
C          0.94626       -4.39418        1.40622
C          1.49312       -5.82746        1.48668
C          2.88131       -5.91365        0.84549
C          2.82600       -5.50585       -0.63519
C          1.95347       -4.30662       -0.91356
C          1.98303       -3.75822       -2.18947
C          1.21503       -2.66960       -2.51092
H          1.25914       -2.24995       -3.50093
H          2.62466       -4.20113       -2.93243
H          3.83687       -5.29797       -1.00900
H          3.56878       -5.24698        1.38143
H          1.52081       -6.17969        2.52755
H          1.44860       -3.77263        2.15526
C         -0.64053       -2.11457        0.73617
C         -0.16400       -1.43854        1.88993
C         -1.07669       -1.11336        2.89725
C         -2.39204       -1.48870        2.80116
C         -2.86689       -2.18540        1.69489
C         -4.30561       -2.64147        1.70025
C         -4.63763       -3.68423        0.62089
C         -3.99015       -3.31776       -0.71776
C         -2.46285       -3.21950       -0.58355
C         -1.99677       -2.47021        0.64018
H         -2.02626       -4.22505       -0.56358
H         -4.38719       -2.35465       -1.05963
H         -5.72538       -3.79572        0.50780
H         -4.95383       -1.76713        1.58123
H         -3.07622       -1.24916        3.59746
H         -0.72155       -0.56707        3.75323
N          1.19416       -1.06546        2.01870
P          1.69288        0.32487        1.06626
C          2.58712       -0.07155       -0.42715
C          2.37208        0.70703       -1.53732
C          3.07300        0.44899       -2.70113
C          3.99356       -0.58863       -2.75556
C          4.21927       -1.34238       -1.61155
C          3.51747       -1.08332       -0.44820
H          3.69554       -1.66606        0.44099
H          4.94360       -2.13843       -1.63924
C          4.75204       -0.86495       -4.00637
H          2.90834        1.05408       -3.57600
H          1.65821        1.51304       -1.48822
C          2.67157        1.47853        2.02324
C          3.01705        1.14712        3.31026
C          3.75730        2.03334        4.07222
C          4.15747        3.25349        3.54330
C          3.78847        3.57212        2.24275
C          3.04855        2.68439        1.48256
H          2.75848        2.92856        0.47287
H          4.07958        4.52313        1.83055
C          4.92591        4.22339        4.37165
H          4.02152        1.78499        5.08587
H          2.68940        0.20288        3.71503
H          1.89735       -1.73781        1.73465
H         -0.59831       -0.87916       -2.93327
C         -0.65530        1.88569       -2.31143
C         -1.10728        3.14928       -2.01579
C         -0.88516        4.19410       -2.89173
C         -0.20960        3.98305       -4.08493
C          0.24705        2.70454       -4.37088
C          0.01811        1.66294       -3.49077
H          0.38671        0.67744       -3.71694
H          0.78588        2.53001       -5.28659
C          0.05746        5.11297       -5.01741
H         -1.23371        5.18394       -2.65096
H         -1.62892        3.31760       -1.08960
C         -2.74039        0.34113       -1.11528
C         -3.37815        0.18874       -2.32442
C         -4.75738        0.08280       -2.37169
C         -5.50980        0.14850       -1.20742
C         -4.84913        0.30227        0.00282
C         -3.47024        0.38655        0.04816
H         -2.96019        0.49480        0.99136
H         -5.42383        0.36383        0.91107
C         -6.99160        0.01004       -1.24745
H         -5.25721       -0.04623       -3.31643
H         -2.79414        0.16098       -3.23142
Cl        -2.17194        2.79733        0.87308
H          2.45988       -6.34757       -1.23519
H          0.80900       -6.50735        0.96355
H          3.30128       -6.92309        0.95913
H         -0.11562       -4.38191        1.68275
H         -4.26824       -4.04211       -1.49627
H         -2.04164       -2.73414       -1.47249
H         -4.54147       -3.04156        2.69477
H         -4.27294       -4.66847        0.94091
H          5.69277       -0.31292       -4.01924
H          4.98274       -1.92721       -4.09914
H          4.17802       -0.57358       -4.88717
H          5.54710        3.70894        5.10616
H          5.58359        4.83547        3.75289
H          4.25172        4.89128        4.90948
H          1.00059        5.60297       -4.77173
H          0.11718        4.76598       -6.04994
H         -0.73440        5.86152       -4.96555
H         -7.46378        0.62111       -0.47695
H         -7.39189        0.32595       -2.21177
H         -7.28761       -1.02708       -1.08321
