171
-217.84343208
P         -1.60443        0.42110       -0.32306
P          1.63527       -0.37812       -0.41322
C         -0.90793        1.41333       -1.64553
C          0.87495       -1.30148       -1.75020
C         -0.11438        0.82828       -2.62574
C          0.50233        1.66115       -3.57852
C          0.26753        3.02595       -3.54110
C         -0.54682        3.58189       -2.57748
C         -1.12590        2.76950       -1.62308
C          1.07197       -2.65926       -1.81133
C          0.45594       -3.40603       -2.79607
C         -0.36641       -2.78294       -3.71066
C         -0.57475       -1.41439       -3.66865
C          0.06955       -0.64938       -2.67721
Cl         1.69193        0.49240        2.74535
Cl        -1.44720       -0.43283        2.86966
C         -1.46611       -0.78071       -4.67889
C          1.38679        1.09882       -4.63462
H         -0.72556        4.64465       -2.56338
H         -1.75178        3.19571       -0.85585
H          1.71360       -3.13790       -1.08954
H          0.61581       -4.47060       -2.84749
H          0.73305        3.65626       -4.27997
H         -0.85866       -3.36218       -4.47365
C         -3.91255       -3.25570       -1.58058
C         -2.94363       -3.37462       -0.59152
C         -2.22481       -2.23745       -0.24856
C         -2.46941       -1.04312       -0.87822
C         -3.43326       -0.93862       -1.85093
C         -4.18065       -2.05137       -2.22016
H         -4.49312       -4.11709       -1.85197
H         -1.48759       -2.27377        0.53549
H         -3.60799        0.02341       -2.30193
C         -4.36365        2.82259        2.36098
C         -4.89938        1.80674        1.57883
C         -4.03459        1.09615        0.75673
C         -2.69839        1.40673        0.71206
C         -2.18804        2.42017        1.48447
C         -3.01098        3.14221        2.33791
H         -5.02217        3.36793        3.01042
H         -4.39535        0.28311        0.15258
H         -1.13450        2.63818        1.43507
C          4.16191       -2.91143        2.37728
C          2.82465       -3.24225        2.19651
C          2.08698       -2.48409        1.29704
C          2.66088       -1.42851        0.63224
C          3.97849       -1.10319        0.84000
C          4.76016       -1.84622        1.71595
H          4.75658       -3.48503        3.06285
H          1.04582       -2.70009        1.12958
H          4.38526       -0.24809        0.33036
C          4.03569        3.19234       -1.79833
C          2.98695        3.39079       -0.90853
C          2.26023        2.27900       -0.50225
C          2.56846        1.03398       -0.98972
C          3.60193        0.85407       -1.87579
C          4.36639        1.93628       -2.29467
H          4.61585        4.04463       -2.09769
H          1.45067        2.37223        0.20085
H          3.82197       -0.14032       -2.22754
Pd         0.05754        0.06221        1.26819
C         -1.21000       -5.11105       -0.10486
C         -2.66700       -4.68974        0.14908
C         -3.59395       -5.82380       -0.32836
C         -2.89343       -4.47745        1.65812
H         -1.04244       -5.29145       -1.16611
H         -0.51778       -4.33387        0.21384
H         -0.96669       -6.02526        0.43616
H         -3.45436       -6.02380       -1.39058
H         -3.38343       -6.74724        0.21106
H         -4.64070       -5.57301       -0.15739
H         -2.23773       -3.70349        2.05400
H         -3.92119       -4.17202        1.85300
H         -2.70139       -5.39436        2.21500
C         -6.65228       -2.28801       -2.54027
C         -5.32047       -1.97222       -3.24617
C         -5.07905       -2.99684       -4.37073
C         -5.42437       -0.56860       -3.87429
H         -6.83511       -1.58334       -1.72960
H         -7.48804       -2.22536       -3.23696
H         -6.64600       -3.29107       -2.11517
H         -4.12483       -2.81638       -4.86348
H         -5.06698       -4.01532       -3.98483
H         -5.86335       -2.93809       -5.12523
H         -4.49989       -0.29366       -4.38058
H         -6.22712       -0.53317       -4.61067
H         -5.64026        0.18511       -3.11726
C         -6.73550        1.01397        3.08701
C         -6.39714        1.47949        1.65944
C         -6.78696        0.35996        0.67328
C         -7.21553        2.73704        1.31290
H         -7.79061        0.75511        3.17381
H         -6.14836        0.13527        3.35340
H         -6.52102        1.79296        3.81774
H         -7.85479        0.14902        0.72909
H         -6.56009        0.64725       -0.35330
H         -6.25723       -0.56545        0.89897
H         -8.28439        2.52533        1.33692
H         -7.02111        3.54464        2.01753
H         -6.96490        3.09570        0.31471
C         -3.42456        4.80942        4.21665
C         -2.40120        4.24707        3.21154
C         -1.91798        5.39209        2.30496
C         -1.20987        3.67257        4.00429
H         -3.80979        4.02148        4.86365
H         -2.96572        5.56618        4.85286
H         -4.26408        5.27823        3.70384
H         -1.17829        5.03737        1.58921
H         -2.74951        5.81506        1.74159
H         -1.46372        6.19092        2.89085
H         -0.41418        3.33326        3.34259
H         -0.78633        4.42328        4.67106
H         -1.52493        2.82215        4.60849
C          0.77791       -3.97949        3.46511
C          2.15977       -4.41303        2.93436
C          3.00540       -4.87845        4.13615
C          1.99682       -5.58718        1.95492
H          0.31918       -4.77361        4.05381
H          0.86820       -3.09754        4.09890
H          0.09395       -3.73898        2.65374
H          3.96112       -5.29021        3.81333
H          3.19784       -4.05158        4.81963
H          2.48772       -5.65868        4.69404
H          1.48966       -6.42690        2.42971
H          1.41673       -5.28939        1.08303
H          2.96853       -5.93272        1.60253
C          6.36920       -1.10197        3.48451
C          6.22701       -1.49585        2.00317
C          6.70901       -0.31779        1.13521
C          7.11569       -2.71641        1.69959
H          6.08534       -1.92378        4.14089
H          7.39726       -0.82633        3.71877
H          5.72882       -0.25162        3.71826
H          6.62454       -0.55889        0.07651
H          6.12827        0.58275        1.33417
H          7.75442       -0.08719        1.33976
H          8.16706       -2.48462        1.86914
H          6.85685       -3.56456        2.33212
H          7.00174       -3.02590        0.66080
C          2.46430        5.76217       -1.55209
C          2.68932        4.79771       -0.37254
C          3.88381        5.27735        0.47094
C          1.42719        4.81025        0.51157
H          2.21044        6.76050       -1.19613
H          3.35540        5.84831       -2.17240
H          1.64942        5.41258       -2.18473
H          4.79433        5.32332       -0.12560
H          3.69983        6.27098        0.87916
H          4.06360        4.59742        1.30354
H          0.55995        4.45682       -0.04493
H          1.55524        4.17890        1.39061
H          1.20963        5.81946        0.86087
C          5.08573        1.04700       -4.53694
C          5.56344        1.70595       -3.23042
C          6.57653        0.78216       -2.53074
C          6.27299        3.02690       -3.58593
H          5.92699        0.84210       -5.19891
H          4.57718        0.10324       -4.34408
H          4.39670        1.70174       -5.06840
H          7.44930        0.61067       -3.16055
H          6.91763        1.22604       -1.59578
H          6.13393       -0.18707       -2.30382
H          5.59229        3.71491       -4.08710
H          6.66508        3.51487       -2.69379
H          7.11246        2.84589       -4.25717
H         -0.96260       -0.69202       -5.64241
H          0.82213        0.87674       -5.54077
H         -1.77965        0.21639       -4.36694
H         -2.36615       -1.37676       -4.82843
H          1.86739        0.17857       -4.29948
H          2.17244        1.80737       -4.89806
