111
-148.55074927
P         -2.70221        2.01335       -0.37858
P          0.05374        0.59296        0.28416
C         -1.88910        2.31389        1.21558
C         -0.67313        1.72377        1.48309
C         -3.56504        3.53965       -0.97533
C         -3.08326        3.94848       -2.34974
C         -2.48396        3.12105        2.16442
H         -3.43925        3.57402        1.95539
C         -1.85617        3.33436        3.37964
H         -2.32093        3.96360        4.12106
C         -0.63707        2.74038        3.64447
H         -0.14995        2.90378        4.59168
C         -0.04481        1.92921        2.69331
H          0.89996        1.44633        2.88785
Pd        -1.13334        0.91214       -1.67882
Cl        -2.60890        0.97147       -3.36310
Cl         0.56155       -0.10978       -2.74681
C         -5.05565        3.14229       -0.92292
C         -4.12953        0.84172       -0.27210
H         -3.56277        4.87114       -2.68516
H         -2.00192        4.10420       -2.36236
H         -3.31343        3.17511       -3.08348
H         -5.59787        3.64719       -1.73562
H         -5.50938        3.51213        0.00831
H         -3.83750       -0.06657       -0.81713
C         -5.24940        1.60184       -1.01162
C         -4.45487        0.51463        1.16901
H         -3.34061        4.33096       -0.24740
H         -6.22685        1.30873       -0.60121
H         -5.26746        1.29945       -2.06917
H         -5.28697       -0.18966        1.24302
H         -3.59370        0.07776        1.67902
H         -4.73605        1.41711        1.71476
C         -1.15142       -3.70343        1.20751
C         -0.37558       -3.40812        0.05769
C         -0.06888       -2.08359       -0.19991
C         -0.42115       -1.08996        0.67337
C         -1.08124       -1.38050        1.83799
C         -1.43741       -2.68206        2.14967
O         -1.66708       -5.01208        1.40608
C          0.12331       -4.48490       -0.91835
H          0.43622       -1.79894       -1.10640
H         -1.31392       -0.57018        2.50558
C         -2.13814       -2.97465        3.48602
C          4.59376        0.87457        0.06739
C          3.80109        1.62418       -0.83933
C          2.42273        1.55757       -0.71756
C          1.83521        0.72120        0.19439
C          2.59506       -0.08647        1.00008
C          3.97841       -0.05926        0.93926
O          5.99857        1.07716        0.12265
C          4.41143        2.49341       -1.95042
H          1.78374        2.14876       -1.35063
H          2.08589       -0.74988        1.67805
C          4.78722       -1.02502        1.81941
C         -0.90892       -4.67009       -2.04085
C          1.46854       -4.05985       -1.55210
C          0.37450       -5.82016       -0.19485
C         -3.66057       -2.96974        3.28126
C         -1.68517       -4.33250        4.05262
C         -1.78481       -1.90145        4.54054
C         -2.92165       -5.24487        0.77811
H         -1.87275       -4.98030       -1.64463
H         -1.05947       -3.73623       -2.58213
H         -0.57871       -5.42433       -2.75458
H          1.89136       -4.87162       -2.14345
H          1.35014       -3.20750       -2.21927
H          2.19258       -3.79406       -0.78253
H         -0.54358       -6.22752        0.22020
H          0.78623       -6.56387       -0.87666
H          1.07923       -5.68476        0.62498
H         -3.99675       -2.00433        2.90542
H         -3.96522       -3.72811        2.56494
H         -4.18076       -3.16565        4.21855
H         -2.13356       -4.51947        5.02804
H         -1.97222       -5.15050        3.39608
H         -0.60192       -4.35898        4.16620
H         -0.70490       -1.78923        4.63417
H         -2.21155       -0.93213        4.28595
H         -2.17823       -2.17665        5.51885
H         -3.63732       -5.60164        1.51876
H         -3.29508       -4.32736        0.32148
H         -2.81461       -6.01391        0.01361
C          6.40152        2.10842        1.01474
C          5.74344        1.90267       -2.44769
C          3.46528        2.55500       -3.17188
C          4.62798        3.91947       -1.42298
C          5.10396       -0.34683        3.16066
C          3.98355       -2.31628        2.09742
C          6.09045       -1.44967        1.11848
H          5.60549        0.87481       -2.78159
H          6.14153        2.48006       -3.28171
H          6.49458        1.89972       -1.66184
H          3.94938        3.05128       -4.01260
H          3.18124        1.55293       -3.49241
H          2.55695        3.11352       -2.95141
H          5.30486        3.92657       -0.57198
H          5.05120        4.56119       -2.19535
H          3.68430        4.35793       -1.09931
H          5.69131        0.55668        3.01606
H          4.18600       -0.06650        3.67680
H          5.66779       -1.01402        3.81213
H          3.63296       -2.76266        1.16734
H          4.60111       -3.05349        2.60998
H          3.12038       -2.12561        2.73351
H          6.63404       -2.18378        1.71266
H          6.75061       -0.60023        0.96097
H          5.87626       -1.89144        0.14585
H          5.53329        2.54243        1.51224
H          7.08194        1.69918        1.76134
H          6.93024        2.88485        0.46220
