111
-148.55305965
P         -2.30561        2.43451       -0.28218
P         -0.10422        0.26763        0.48626
C         -1.81923        2.21498        1.44624
C         -0.89487        1.24912        1.77846
C         -2.08989        4.18823       -0.82445
C         -0.96525        4.29300       -1.83169
C         -2.38900        2.99453        2.43198
H         -3.10048        3.75779        2.16088
C         -2.04387        2.78955        3.75674
H         -2.48983        3.39580        4.52823
C         -1.13451        1.80438        4.09089
H         -0.87098        1.63936        5.12264
C         -0.55882        1.03122        3.09851
H          0.14868        0.25447        3.34405
Pd        -1.20983        0.80088       -1.48700
Cl        -2.54367        1.31476       -3.21581
Cl        -0.12719       -0.90524       -2.47362
C         -3.47833        4.56446       -1.37685
C         -4.12882        2.23559       -0.54918
H         -1.17327        3.67352       -2.70657
H         -0.83228        5.32103       -2.17719
H         -0.01791        3.95164       -1.40658
H         -3.47022        4.43260       -2.46752
H         -3.68057        5.63343       -1.21104
H         -4.23507        1.66523       -1.48138
C         -4.60305        3.68433       -0.76164
C         -4.80172        1.50558        0.59347
H         -1.86314        4.76591        0.08128
H         -4.91088        4.10285        0.20639
H         -5.50566        3.70289       -1.39132
H         -4.68044        2.04899        1.53137
H         -5.87352        1.39026        0.41667
H         -4.37308        0.51104        0.73296
C         -1.07811       -4.15647        0.87581
C          0.26092       -3.76142        0.62424
C          0.53534       -2.40863        0.51905
C         -0.44308       -1.47120        0.71982
C         -1.71460       -1.84354        1.06992
C         -2.05420       -3.18016        1.20365
O         -1.45207       -5.52032        0.74722
C          1.39912       -4.76947        0.40447
H          1.51948       -2.06855        0.25062
H         -2.44698       -1.06953        1.22413
C         -3.47582       -3.54406        1.65857
C          4.35442        1.17539        0.08050
C          3.68534        0.41458       -0.91084
C          2.32802        0.19534       -0.75917
C          1.65073        0.62714        0.35060
C          2.31536        1.27992        1.35634
C          3.67346        1.53803        1.27052
O          5.69293        1.60081       -0.13182
C          4.39683       -0.14764       -2.15180
H          1.76640       -0.31125       -1.52302
H          1.75315        1.59915        2.21478
C          4.38129        2.22324        2.45063
C          1.51284       -5.07981       -1.09592
C          2.74427       -4.18613        0.89430
C          1.15934       -6.06639        1.19839
C         -4.01595       -2.48328        2.64477
C         -4.40105       -3.59681        0.43345
C         -3.49857       -4.89346        2.39944
C         -1.88621       -5.87306       -0.56043
H          0.59315       -5.51735       -1.47746
H          1.70589       -4.17000       -1.66385
H          2.32542       -5.77926       -1.29041
H          2.66480       -3.84368        1.92568
H          3.53094       -4.93904        0.85108
H          3.07078       -3.34850        0.28054
H          2.00007       -6.75160        1.09279
H          1.02954       -5.84909        2.25804
H          0.26834       -6.58453        0.85304
H         -3.31909       -2.33048        3.46847
H         -4.18330       -1.52479        2.15685
H         -4.97015       -2.79763        3.06700
H         -4.06645       -4.34646       -0.28003
H         -5.42223       -3.84074        0.72512
H         -4.41656       -2.63538       -0.07951
H         -2.80817       -4.88002        3.24213
H         -4.49520       -5.11462        2.78063
H         -3.20877       -5.71126        1.74464
H         -1.25205       -6.66676       -0.95512
H         -2.91081       -6.24231       -0.51971
H         -1.83824       -5.00720       -1.22219
C          5.80618        2.85750       -0.78795
C          3.71041       -1.44621       -2.63501
C          4.33439        0.88759       -3.28493
C          5.86024       -0.50677       -1.83715
C          5.83965        1.74553        2.57478
C          4.33716        3.74637        2.25614
C          3.68064        1.87777        3.78471
H          2.71204       -1.25552       -3.02551
H          4.28308       -1.91077       -3.43729
H          3.62935       -2.16706       -1.82252
H          4.82491        0.51349       -4.18316
H          3.29983        1.11956       -3.53702
H          4.82104        1.81666       -2.99822
H          5.91217       -1.21046       -1.00697
H          6.34593       -0.96288       -2.69944
H          6.43562        0.37401       -1.56367
H          6.42497        2.02601        1.70268
H          6.32200        2.18194        3.44906
H          5.88123        0.66103        2.67024
H          4.84154        4.04196        1.33947
H          3.30713        4.09711        2.19560
H          4.82063        4.26014        3.08668
H          4.25463        2.25355        4.63145
H          3.57959        0.79906        3.90168
H          2.68969        2.32501        3.84799
H          6.36646        3.54882       -0.15864
H          6.34991        2.73414       -1.72437
H          4.81776        3.27070       -0.99275
