59
-75.80060301
Cl         1.57818        0.39708        2.32345
P          1.52065        0.06239       -0.83911
P         -1.69509       -0.12280       -0.78276
C          0.48260        0.42697       -2.32387
H          0.16473        1.47028       -2.28971
H          1.09249        0.29554       -3.22313
C         -0.71272       -0.48286       -2.30200
H         -0.40157       -1.53059       -2.27289
H         -1.35808       -0.35026       -3.17611
C          2.61346       -1.38805       -1.24247
H          2.45740       -1.55316       -2.31779
C          2.82926        1.31523       -0.42026
H          2.49459        1.85422        0.47472
C         -3.03426       -1.36305       -0.47550
H         -3.19875       -1.36583        0.60932
C         -2.75312        1.37848       -1.06309
H         -2.48821        1.76244       -2.05555
C          4.04085       -0.85998       -0.99364
H          4.65647       -1.65108       -0.54285
H          4.52787       -0.62842       -1.95234
C          4.03855        0.41116       -0.10370
H          4.97396        0.97624       -0.22990
H          4.01220        0.11637        0.95587
C         -4.23614       -0.72221       -1.18686
H         -4.21236       -1.00702       -2.24824
H         -5.17927       -1.12958       -0.79058
C         -4.19528        0.82428       -1.05631
H         -4.67800        1.11627       -0.11366
H         -4.79307        1.29944       -1.84836
C          2.27702       -2.67140       -0.48571
H          2.89880       -3.48716       -0.88063
H          1.24636       -2.96192       -0.72275
C          3.11377        2.30785       -1.55191
H          4.14024        2.68480       -1.44193
H          3.11104        1.76657       -2.50682
C         -2.68264       -2.76773       -0.94747
H         -3.59036       -3.38708       -0.95093
H         -2.36195       -2.72233       -1.99600
C         -2.52061        2.44830        0.00117
H         -3.34587        3.17334       -0.03617
H         -2.59351        1.97847        0.99107
C          2.45990       -2.58718        1.02115
H          3.49321       -2.36339        1.29000
H          2.19131       -3.52235        1.51800
H          1.84189       -1.80347        1.45598
C          2.15528        3.48803       -1.59584
H          1.12918        3.17030       -1.76925
H          2.41221        4.19362       -2.38937
H          2.16487        4.03858       -0.65312
C         -1.61341       -3.41600       -0.08294
H         -0.72814       -2.78379       -0.01951
H         -1.30315       -4.39002       -0.46784
H         -1.96740       -3.56208        0.93946
C         -1.19488        3.17753       -0.14319
H         -1.05584        3.93228        0.63417
H         -0.35190        2.48970       -0.07968
H         -1.12875        3.68426       -1.10773
Cl        -1.68631       -0.13920        2.41058
Pd        -0.07418       -0.01222        0.85938
