59
-75.79807611
Cl         1.48490        0.65539        2.37833
P          1.48922        0.12775       -0.78996
P         -1.65228       -0.24045       -0.78290
C          0.52668        0.21335       -2.36195
H          0.19483        1.24619       -2.49809
H          1.18800       -0.03590       -3.19772
C         -0.65034       -0.71460       -2.26138
H         -0.31422       -1.74646       -2.14151
H         -1.28943       -0.67570       -3.14903
C          2.58600       -1.36158       -0.74127
H          2.59347       -1.77694       -1.75625
C          2.75703        1.46718       -0.62540
H          2.67020        1.84634        0.40017
C         -2.96274       -1.45867       -0.28084
H         -2.72731       -1.77178        0.74417
C         -2.71024        1.22055       -1.20525
H         -2.39782        1.57836       -2.19429
C          3.96369       -0.77605       -0.38142
H          4.10744       -0.85514        0.70497
H          4.76702       -1.37990       -0.83016
C          4.08627        0.71275       -0.80724
H          4.38260        0.76738       -1.86385
H          4.89103        1.21428       -0.24834
C         -4.25190       -0.61121       -0.30639
H         -5.10537       -1.24049       -0.59754
H         -4.48257       -0.25511        0.70861
C         -4.12425        0.60869       -1.25673
H         -4.87114        1.37609       -1.00522
H         -4.35753        0.29389       -2.28484
C          2.06992       -2.39511        0.25261
H          1.01600       -2.61138        0.03315
H          2.06724       -1.94937        1.25641
C          2.53520        2.59819       -1.62275
H          2.59647        2.19025       -2.64028
H          1.50783        2.97283       -1.52288
C         -3.01226       -2.69008       -1.18533
H         -4.00233       -3.15954       -1.10129
H         -2.93783       -2.36533       -2.23113
C         -2.56530        2.33987       -0.17702
H         -3.41269        3.03254       -0.27682
H         -2.66329        1.90747        0.82762
C          2.87997       -3.68262        0.24968
H          2.49000       -4.41331        0.96196
H          3.92315       -3.49557        0.51054
H          2.87359       -4.14944       -0.73710
C          3.52328        3.74252       -1.45255
H          4.55125        3.40440       -1.59473
H          3.46120        4.16970       -0.44987
H          3.34257        4.54991       -2.16590
C         -1.93908       -3.71803       -0.85628
H         -2.06232       -4.10403        0.15756
H         -0.93956       -3.28862       -0.90834
H         -1.96573       -4.57167       -1.53737
C         -1.26001        3.11182       -0.30252
H         -0.39557        2.45775       -0.19199
H         -1.17606        3.58852       -1.28100
H         -1.17316        3.89534        0.45358
Cl        -1.75117       -0.16801        2.38607
Pd        -0.08786        0.05944        0.89976
