58
-89.86777867
P          1.72076        0.34906        0.73329
C          3.15792        1.30603        0.24685
C          4.28988        0.66814       -0.20665
C          5.39132        1.41171       -0.59030
C          5.34895        2.79017       -0.51819
C          4.20986        3.42582       -0.06464
C          3.10993        2.67922        0.31923
H          2.20907        3.16189        0.66436
H          4.30549       -0.40824       -0.26325
C          1.95475       -1.39709        0.37008
C          1.90470       -1.78772       -0.94930
C          2.04733       -3.12232       -1.28118
C          2.24518       -4.05812       -0.28568
C          2.31144       -3.66086        1.03528
C          2.17029       -2.32471        1.36360
H          2.24186       -2.00490        2.38997
H          1.75367       -1.04007       -1.71245
C          1.38045        0.67924        2.50689
C          0.19006       -0.07514        3.07629
C         -1.16359        0.46011        2.63498
P         -1.64775        0.02966        0.91311
C         -1.58147       -1.74088        0.59401
C         -1.52809       -2.66129        1.61598
C         -1.44587       -4.01009        1.32089
C         -1.42769       -4.42941        0.00523
C         -1.50183       -3.50477       -1.01712
C         -1.58209       -2.15768       -0.71786
H         -1.65065       -1.41928       -1.50086
H         -1.56564       -2.32857        2.64009
C         -3.30125        0.67067        0.63599
C         -4.33875       -0.19278        0.36807
C         -5.60881        0.30724        0.14414
C         -5.82863        1.66994        0.18853
C         -4.78344        2.53249        0.45495
C         -3.51414        2.02933        0.67916
H         -2.68540        2.69076        0.87747
H         -4.14946       -1.25334        0.32961
Pd        -0.08481        0.77781       -0.64421
Cl         1.32856        1.62146       -2.16524
Cl        -1.91947        0.98924       -1.93576
H         -1.96705        0.07217        3.26625
H         -1.19544        1.54758        2.72205
H          0.26823       -1.13550        2.80972
H          0.24389       -0.05036        4.17596
H          2.30259        0.42332        3.03468
H          1.24381        1.75623        2.61935
H          6.27856        0.91558       -0.94795
H          4.17466        4.50167       -0.01410
H          1.99921       -3.42960       -2.31285
H          2.47223       -4.39144        1.81098
H         -1.39566       -4.73321        2.11832
H         -1.49340       -3.82968       -2.04446
H         -6.42330       -0.36565       -0.06817
H         -4.95391        3.59614        0.48380
H          6.20520        3.37118       -0.81980
H          2.35086       -5.10007       -0.54027
H         -1.35926       -5.48035       -0.22389
H         -6.81711        2.06136        0.01128
