111
-148.54958662
P         -2.67087        1.92105       -0.24039
P          0.13291        0.54268        0.35245
C         -1.84043        2.18484        1.35540
C         -0.60376        1.62275        1.58866
C         -3.71601        3.38890       -0.67396
C         -3.40060        3.91588       -2.05609
C         -2.44658        2.93617        2.34266
H         -3.42270        3.35799        2.16874
C         -1.80654        3.12964        3.55482
H         -2.28042        3.71676        4.32449
C         -0.56415        2.56924        3.78109
H         -0.06747        2.71723        4.72585
C          0.03743        1.80798        2.79523
H          0.99899        1.34699        2.95996
Pd        -1.03312        0.98900       -1.58829
Cl        -2.41304        1.26323       -3.33270
Cl         0.62154        0.05897       -2.79146
C         -5.15232        2.84431       -0.52557
C         -3.96397        0.59842       -0.17313
H         -3.98463        4.80952       -2.28847
H         -2.34194        4.16683       -2.15442
H         -3.63387        3.16730       -2.81418
H         -5.81511        3.35961       -1.23605
H         -5.54397        3.08730        0.47315
H         -3.62898       -0.20877       -0.83929
C         -5.21207        1.30541       -0.73990
C         -4.13428        0.08132        1.23865
H         -3.50412        4.16070        0.07793
H         -6.11577        0.88379       -0.27607
H         -5.30358        1.09286       -1.81532
H         -4.89107       -0.70512        1.29037
H         -3.19765       -0.32550        1.62536
H         -4.44416        0.88550        1.90864
C         -1.34046       -3.71476        1.01447
C         -0.78985       -3.33933       -0.23729
C         -0.35396       -2.03595       -0.39299
C         -0.38302       -1.14756        0.64866
C         -0.80741       -1.53755        1.89152
C         -1.25762       -2.82748        2.11857
O         -2.01264       -4.95836        1.15107
C         -0.70590       -4.29775       -1.43465
H         -0.00238       -1.68108       -1.34607
H         -0.79992       -0.80974        2.68361
C         -1.68074       -3.23422        3.53886
C          4.65710        0.93448        0.03035
C          3.83620        2.07794       -0.14575
C          2.46500        1.93058       -0.00919
C          1.90832        0.69970        0.22026
C          2.68899       -0.42488        0.28078
C          4.06538       -0.34861        0.15092
O          6.06747        1.07827        0.11816
C          4.41439        3.46541       -0.46573
H          1.80751        2.78024       -0.07947
H          2.20345       -1.37333        0.43028
C          4.88868       -1.64623        0.15411
C         -0.52263       -5.75412       -0.97137
C         -1.98274       -4.16382       -2.27847
C          0.51114       -3.95245       -2.32318
C         -1.41581       -4.73024        3.78798
C         -0.86786       -2.45100        4.59465
C         -3.17146       -2.92089        3.73846
C         -3.40307       -4.89710        0.85821
H         -1.38118       -6.10105       -0.40206
H         -0.39945       -6.42350       -1.82239
H          0.35813       -5.84650       -0.33672
H         -2.10055       -3.14182       -2.63829
H         -1.95015       -4.82485       -3.14407
H         -2.86734       -4.41342       -1.69730
H          0.64567       -4.70150       -3.10308
H          0.38966       -2.99186       -2.82128
H          1.42479       -3.91864       -1.73094
H         -2.02005       -5.35427        3.13420
H         -0.36892       -4.97017        3.60507
H         -1.65234       -5.00449        4.81575
H         -1.11946       -1.39143        4.59313
H         -1.07270       -2.82649        5.59699
H          0.20183       -2.55046        4.41202
H         -3.50027       -3.20902        4.73661
H         -3.36152       -1.85497        3.61700
H         -3.78663       -3.45161        3.01586
H         -3.63214       -5.56269        0.02619
H         -3.97394       -5.22773        1.72578
H         -3.69296       -3.87805        0.59847
C          6.54881        1.27440        1.44171
C          4.71456        4.20713        0.84538
C          5.69361        3.34948       -1.31475
C          3.40524        4.30052       -1.28621
C          6.15356       -1.50262       -0.71161
C          5.27210       -2.00263        1.59812
C          4.06659       -2.81218       -0.44184
H          5.11364        5.20187        0.64865
H          3.80892        4.31810        1.44129
H          5.44178        3.66643        1.44631
H          5.49921        2.78356       -2.22521
H          6.06602        4.33324       -1.59928
H          6.48663        2.84285       -0.77029
H          3.85915        5.23098       -1.62649
H          3.07145        3.74982       -2.16533
H          2.53024        4.56916       -0.69628
H          5.89131       -1.20612       -1.72664
H          6.82722       -0.75061       -0.30848
H          6.70220       -2.44271       -0.76331
H          4.38117       -2.13615        2.21137
H          5.84739       -2.92746        1.63243
H          5.87135       -1.21693        2.05209
H          3.23444       -3.09100        0.20295
H          4.68639       -3.70000       -0.56497
H          3.66878       -2.54317       -1.42003
H          5.71946        1.29169        2.14992
H          7.23484        0.46948        1.70473
H          7.09342        2.21691        1.49604
