111
-148.55013404
P         -2.16533        2.22633        1.39675
P          0.11348        0.21144        0.51131
C         -1.13430        1.42692        2.65240
C         -0.15873        0.53613        2.26354
C         -2.27248        4.04382        1.72484
C         -1.81764        4.83820        0.52047
C         -1.32752        1.69576        3.99233
H         -2.07792        2.41022        4.28908
C         -0.55517        1.05072        4.94280
H         -0.70655        1.25849        5.98946
C          0.40349        0.13594        4.55162
H          0.99838       -0.37390        5.29148
C          0.60044       -0.12412        3.20731
H          1.33620       -0.84518        2.88647
Pd        -1.54760        1.34732       -0.65457
Cl        -3.07364        2.70731       -1.57734
Cl        -0.91583        0.32058       -2.54816
C         -3.75602        4.25169        2.09508
C         -3.96020        1.76856        1.49054
H         -0.79660        4.57531        0.23335
H         -2.46199        4.63849       -0.33694
H         -1.85010        5.91328        0.71293
H         -4.08322        5.24399        1.75212
H         -3.87086        4.26527        3.18888
H         -4.18897        1.21390        0.57014
C         -4.66417        3.14065        1.49722
C         -4.26167        0.91662        2.70535
H         -1.61770        4.24527        2.58373
H         -5.60823        3.06748        2.05660
H         -4.94747        3.41781        0.47109
H         -5.30787        0.60235        2.72452
H         -3.63836        0.01984        2.72854
H         -4.07132        1.47325        3.62402
C         -1.10036       -4.08778       -0.34889
C         -2.06104       -3.14577        0.10125
C         -1.63357       -1.85934        0.38588
C         -0.33728       -1.48063        0.15335
C          0.56743       -2.35357       -0.39075
C          0.20852       -3.65752       -0.68729
O         -1.43478       -5.46608       -0.42327
C         -3.54519       -3.49515        0.29108
H         -2.31179       -1.12996        0.79519
H          1.56549       -2.00003       -0.58033
C          1.23855       -4.58701       -1.34788
C          4.37989        0.96083       -0.92310
C          4.08093        1.10340        0.45808
C          2.78034        0.87331        0.87526
C          1.78467        0.59073       -0.02444
C          2.04803        0.58785       -1.36917
C          3.32272        0.81068       -1.85851
O          5.72825        0.88337       -1.35717
C          5.12050        1.49897        1.52035
H          2.53526        0.90520        1.92166
H          1.23079        0.40280       -2.04413
C          3.50004        0.89868       -3.38371
C         -4.43163       -2.26214        0.00022
C         -3.98628       -4.60150       -0.68434
C         -3.78078       -3.94191        1.74155
C          2.21755       -3.77743       -2.22842
C          2.04181       -5.31293       -0.25853
C          0.54892       -5.61020       -2.26858
C         -1.20714       -6.18028        0.78505
H         -4.30254       -1.48581        0.75209
H         -4.19539       -1.83679       -0.97489
H         -5.48677       -2.53442        0.00065
H         -3.77751       -4.31030       -1.71323
H         -3.46319       -5.53433       -0.48972
H         -5.05448       -4.79838       -0.59712
H         -3.18669       -4.82006        1.98423
H         -3.50314       -3.15108        2.43813
H         -4.82924       -4.18695        1.90931
H          1.67240       -3.15758       -2.93947
H          2.86053       -3.13235       -1.63136
H          2.86935       -4.44205       -2.79499
H          1.39307       -5.91544        0.37290
H          2.78969       -5.97201       -0.69871
H          2.55698       -4.59724        0.38179
H          1.28191       -6.22489       -2.79042
H         -0.09828       -6.27756       -1.70470
H         -0.06225       -5.10342       -3.01467
H         -0.77981       -5.52117        1.54180
H         -2.14773       -6.59125        1.15122
H         -0.52350       -7.00784        0.59599
C          6.22083       -0.44614       -1.37789
C          6.40046        2.08196        0.89631
C          4.52863        2.59120        2.43865
C          5.47758        0.26763        2.36907
C          3.33141       -0.49994       -3.99964
C          2.42403        1.84051       -3.96869
C          4.86919        1.47506       -3.78327
H          6.16107        2.91396        0.23501
H          7.08321        2.44339        1.66493
H          6.93006        1.33325        0.31184
H          5.27393        2.94594        3.15012
H          4.19114        3.44507        1.85186
H          3.68181        2.22193        3.01469
H          6.19725        0.52542        3.14564
H          4.59179       -0.14087        2.85464
H          5.91303       -0.51943        1.75642
H          3.44440       -0.46472       -5.08282
H          4.07129       -1.19501       -3.60691
H          2.34389       -0.90378       -3.77979
H          2.47151        2.82000       -3.49385
H          2.56892        1.97835       -5.03979
H          1.41936        1.44628       -3.82591
H          5.03766        2.43614       -3.29869
H          4.93472        1.62107       -4.86120
H          5.67760        0.80870       -3.49200
H          6.20566       -0.86575       -0.37337
H          5.60125       -1.06474       -2.02547
H          7.24487       -0.44456       -1.75184
