59
-75.80014466
Cl         1.56900        0.47450        2.36931
P          1.51092       -0.05170       -0.86357
P         -1.66212       -0.16964       -0.77049
C          0.49221        0.16240       -2.38838
H          0.20921        1.21544       -2.46837
H          1.10133       -0.08412       -3.26392
C         -0.72647       -0.70538       -2.26973
H         -0.44589       -1.75562       -2.15973
H         -1.38332       -0.62632       -3.14181
C          2.71527       -1.44079       -1.11515
H          2.72125       -1.59038       -2.20347
C          2.70741        1.34070       -0.59313
H          2.64451        1.59465        0.47181
C         -3.04679       -1.31535       -0.30172
H         -2.98697       -1.43249        0.78753
C         -2.65493        1.32495       -1.22695
H         -2.19370        1.77550       -2.11460
C          4.05889       -0.82812       -0.68388
H          4.23129       -1.03694        0.37906
H          4.89022       -1.31349       -1.21753
C          4.07476        0.70823       -0.90759
H          4.33200        0.92216       -1.95393
H          4.86465        1.18335       -0.30634
C         -4.32664       -0.53941       -0.68654
H         -5.02093       -1.21458       -1.20648
H         -4.85794       -0.22354        0.22315
C         -4.02593        0.70547       -1.56475
H         -4.81578        1.46246       -1.44816
H         -4.04796        0.41590       -2.62626
C          2.33200       -2.75012       -0.42406
H          3.02135       -3.53980       -0.75409
H          1.34590       -3.06129       -0.79242
C          2.37177        2.56419       -1.43718
H          2.42444        2.28821       -2.49856
H          1.32533        2.84751       -1.26224
C         -2.91348       -2.68632       -0.95454
H         -3.86502       -3.22832       -0.86171
H         -2.76233       -2.55277       -2.03347
C         -2.70213        2.34046       -0.08771
H         -3.55061        3.02063       -0.24678
H         -2.92902        1.80881        0.84600
C          2.31780       -2.70201        1.09695
H          3.31465       -2.53901        1.50867
H          1.94379       -3.63301        1.52949
H          1.68426       -1.89808        1.46798
C          3.28351        3.74869       -1.15387
H          3.02253        4.62083       -1.75774
H          4.32686        3.50602       -1.36311
H          3.22686        4.04621       -0.10506
C         -1.79041       -3.51333       -0.34554
H         -0.84416       -2.97302       -0.36732
H         -1.64520       -4.46144       -0.86816
H         -1.99402       -3.74281        0.70227
C         -1.42122        3.14966        0.05558
H         -1.47648        3.85994        0.88355
H         -0.55905        2.50859        0.23648
H         -1.21076        3.71882       -0.85190
Cl        -1.72261       -0.14613        2.33665
Pd        -0.02725        0.00531        0.87275
