105
-153.06217524
Cl         2.92461        2.16797        0.11521
Pd         0.86132        1.62592       -0.61130
P         -1.34634        1.28868       -1.31163
N         -1.47672       -0.32629       -0.71668
C         -0.53570       -1.23304       -1.19709
C         -0.14950       -2.29602       -0.33834
C          0.96950       -3.08048       -0.67195
C          1.41142       -4.18100        0.26000
C          2.20053       -5.28644       -0.45425
C          3.35671       -4.67951       -1.25550
C          2.85104       -3.66293       -2.29518
C          1.66399       -2.83508       -1.86014
C          1.23637       -1.81646       -2.70680
C          0.16216       -1.02734       -2.38774
H         -0.13241       -0.22039       -3.03322
H          1.77439       -1.64220       -3.62317
H          3.66289       -2.98171       -2.58029
H          4.04853       -4.18226       -0.56523
H          2.56741       -6.03489        0.26235
H          2.03193       -3.73992        1.04623
C         -1.04005       -2.65316        0.79933
C         -1.19815       -1.82276        1.94336
C         -2.04188       -2.25579        2.96601
C         -2.73051       -3.43678        2.87481
C         -2.64754       -4.22929        1.73841
C         -3.45439       -5.50657        1.70259
C         -3.57594       -6.15088        0.31131
C         -2.25268       -6.05926       -0.45416
C         -1.83223       -4.59188       -0.61609
C         -1.82155       -3.82485        0.68658
H         -0.85318       -4.53298       -1.10314
H         -2.32565       -6.55965       -1.43017
H         -4.36015       -5.63887       -0.26055
H         -4.45242       -5.30216        2.11087
H         -3.36668       -3.75188        3.68474
H         -2.15260       -1.63777        3.84029
N         -0.62495       -0.56413        2.10174
P          0.74360        0.25280        1.32494
C          2.16534       -0.83333        1.42749
C          2.29664       -1.59929        2.56138
C          3.40224       -2.41704        2.71658
C          4.38138       -2.47223        1.73448
C          4.22823       -1.69376        0.59461
C          3.12423       -0.87571        0.44371
H          3.01111       -0.26509       -0.43694
H          4.98059       -1.72855       -0.17457
C          5.55746       -3.37072        1.89860
H          3.50831       -3.02232        3.60057
H          1.52976       -1.55547        3.31879
C          1.05382        1.63245        2.43806
C          0.08801        2.60530        2.52483
C          0.27531        3.69111        3.36008
C          1.43095        3.80375        4.12053
C          2.39836        2.81319        4.01430
C          2.20753        1.72867        3.17820
H          2.96103        0.96372        3.09020
H          3.30601        2.89998        4.58680
C          1.64943        4.98775        4.99662
H         -0.47500        4.46078        3.41986
H         -0.80561        2.51924        1.92948
H         -0.78174       -0.09762        2.98658
H         -1.38894       -0.26308        0.29714
C         -2.06272        1.34009       -2.95272
C         -1.43535        1.97814       -3.99518
C         -2.01847        1.98914       -5.24760
C         -3.23926        1.36366       -5.46282
C         -3.85280        0.71336       -4.40022
C         -3.26574        0.70443       -3.14690
H         -3.73341        0.19623       -2.31776
H         -4.79153        0.21118       -4.56036
C         -3.85647        1.35153       -6.81805
H         -1.52593        2.48173       -6.06852
H         -0.48415        2.45256       -3.82411
C         -2.16279        2.43258       -0.20659
C         -2.96537        1.95543        0.80205
C         -3.50790        2.83657        1.71971
C         -3.23747        4.19630        1.63796
C         -2.43140        4.65770        0.60560
C         -1.88963        3.77570       -0.31193
H         -1.23120        4.12092       -1.09385
H         -2.22096        5.71088        0.53135
C         -3.82525        5.14738        2.62140
H         -4.13858        2.47080        2.51187
H         -3.15564        0.89713        0.87674
Cl         1.25926        2.71964       -2.53227
H          2.57814       -4.19029       -3.21718
H          1.53191       -5.82932       -1.13398
H          3.94826       -5.46933       -1.73951
H          0.54642       -4.60404        0.78374
H         -1.47433       -6.60040        0.09848
H         -2.52187       -4.08633       -1.30271
H         -2.99692       -6.22056        2.39799
H         -3.90655       -7.19609        0.39181
H          6.29946       -3.20225        1.11698
H          6.04408       -3.20257        2.86036
H          5.25476       -4.41790        1.85297
H          2.26667        4.73128        5.85876
H          2.15121        5.78649        4.44882
H          0.70313        5.37981        5.37204
H         -3.59602        2.25124       -7.37727
H         -3.51531        0.48832       -7.39112
H         -4.94455        1.30513       -6.75490
H         -4.77760        5.53834        2.26073
H         -4.00238        4.66154        3.58198
H         -3.15857        5.99288        2.79713
