105
-153.06097504
Cl         0.30414        3.53999        1.72906
Pd        -0.15403        1.93287        0.22729
P         -0.72127        0.22024       -1.32200
N          0.12907       -1.21571       -1.92489
C          0.21273       -2.53351       -1.48544
C         -0.10843       -2.97265       -0.17190
C          0.21467       -4.29315        0.21139
C          0.12657       -4.69161        1.66687
C         -0.04559       -6.20340        1.86852
C          1.04458       -6.96560        1.10870
C          0.99818       -6.64692       -0.39587
C          0.70927       -5.20111       -0.72835
C          0.93671       -4.76991       -2.02823
C          0.71818       -3.46630       -2.39070
H          0.94472       -3.14354       -3.39222
H          1.31576       -5.47230       -2.75137
H          1.94579       -6.93269       -0.87004
H          2.02681       -6.68637        1.51045
H         -0.03883       -6.46339        2.93653
H          1.04566       -4.35932        2.16461
C         -0.70096       -2.07214        0.85288
C          0.12050       -1.07269        1.43632
C         -0.34594       -0.36687        2.54602
C         -1.60064       -0.60881        3.04238
C         -2.43935       -1.55394        2.45855
C         -3.80944       -1.76258        3.04832
C         -4.40747       -3.13349        2.70051
C         -4.31969       -3.38730        1.19276
C         -2.86458       -3.33793        0.69576
C         -1.99538       -2.29100        1.35726
H         -2.40483       -4.32177        0.83770
H         -4.90983       -2.62698        0.66937
H         -5.44612       -3.21085        3.05223
H         -4.47132       -0.96653        2.68727
H         -1.95809       -0.04751        3.88889
H          0.27679        0.39213        2.98293
N          1.28040       -0.71701        0.75329
P          1.82115        0.90663        0.97420
C          2.90568        1.39828       -0.35827
C          3.13825        2.73657       -0.56845
C          3.89031        3.13723       -1.65780
C          4.39965        2.19965       -2.54682
C          4.15816        0.85244       -2.31097
C          3.40601        0.45288       -1.22120
H          3.19710       -0.59037       -1.04810
H          4.55551        0.11862       -2.99120
C          5.21512        2.62905       -3.71636
H          4.07525        4.18358       -1.83066
H          2.69918        3.45853        0.10247
C          2.64959        0.99245        2.56179
C          3.45520       -0.06298        2.91738
C          4.11351       -0.04580        4.13471
C          3.96187        1.02617        5.00416
C          3.14855        2.08506        4.62294
C          2.49284        2.06395        3.40713
H          1.84824        2.87447        3.11379
H          3.03124        2.92574        5.28524
C          4.68915        1.05557        6.30341
H          4.74944       -0.86746        4.41669
H          3.55710       -0.89848        2.24217
H          1.13085       -0.84139       -0.24756
H          0.34350       -1.04347       -2.89933
C         -0.59555        1.34335       -2.72259
C         -1.69188        1.70903       -3.46582
C         -1.54069        2.57907       -4.52968
C         -0.29094        3.09078       -4.85319
C          0.80592        2.69819       -4.09867
C          0.65088        1.82811       -3.03539
H          1.49895        1.53212       -2.44081
H          1.78193        3.08023       -4.34441
C         -0.12472        4.01340       -6.01008
H         -2.39644        2.87017       -5.11454
H         -2.66336        1.32249       -3.20609
C         -2.45577       -0.19688       -1.14692
C         -3.26100        0.40403       -0.20866
C         -4.60901        0.10125       -0.16455
C         -5.16011       -0.80634       -1.05884
C         -4.33235       -1.40079       -2.00145
C         -2.98288       -1.09716       -2.04192
H         -2.33385       -1.55592       -2.77122
H         -4.75048       -2.10046       -2.70471
C         -6.61784       -1.10931       -1.03024
H         -5.24504        0.57773        0.56170
H         -2.83929        1.12049        0.47662
Cl        -1.83369        3.15001       -0.63976
H          0.23371       -7.26814       -0.87785
H         -1.03086       -6.50967        1.49533
H          0.95404       -8.04727        1.28186
H         -0.67856       -4.14513        2.16972
H         -4.78755       -4.34735        0.93319
H         -2.84147       -3.16953       -0.38783
H         -3.75754       -1.63262        4.13686
H         -3.85462       -3.91727        3.23361
H          4.92288        3.62359       -4.05641
H          6.27492        2.65862       -3.45982
H          5.09038        1.94341       -4.55570
H          4.78891        0.05253        6.72068
H          5.69065        1.46918        6.17724
H          4.16227        1.66764        7.03681
H          0.71781        4.68917       -5.85658
H          0.05507        3.45411       -6.92921
H         -1.01608        4.62502       -6.15644
H         -6.81439       -2.13065       -1.35953
H         -7.02288       -1.00280       -0.02284
H         -7.16643       -0.43247       -1.68655
