72
-108.40411872
Cl        -1.78171        0.83357        2.64290
Cl         0.87345       -0.94379        2.75181
P          1.14101       -1.13855       -0.26006
P         -2.26596        0.15892       -0.41226
C         -3.28403       -1.42702       -0.19165
C         -3.66998       -1.57354        1.28154
C         -4.53186       -1.36687       -1.06503
C         -3.31931        1.72671       -0.18296
C         -4.10780        2.02924       -1.46329
C         -1.41350        0.42992       -2.07386
C         -1.46085       -0.74620       -3.02661
C          1.16065        0.20716       -1.48612
C          0.00501        0.96397       -1.96989
C          0.52450        2.05733       -2.79266
C          1.97134        1.96309       -2.81410
C          2.36339        0.79962       -2.04145
C         -2.43407       -2.63198       -0.57384
H         -4.18597       -2.52025        1.44980
H         -2.79037       -1.56152        1.92525
H         -5.07653       -2.31144       -1.02108
H         -4.28112       -1.17847       -2.10807
C         -4.29508        1.60712        0.98346
H         -4.61867        1.14625       -1.84290
H         -3.46994        2.41942       -2.25553
H         -2.00596        1.23419       -2.52006
H         -0.82895       -1.55422       -2.66529
H         -1.07406       -0.46849       -4.00928
H         -2.47218       -1.12552       -3.16930
H         -0.08073        2.76368       -3.36380
H          2.64723        2.61866       -3.36813
Pd        -0.53763       -0.25837        1.13413
H          3.38118        0.45914       -1.83946
C         -2.33400        2.85418        0.08748
H         -4.86475        2.79201       -1.27319
H         -3.79013        1.30094        1.89732
H         -4.76916        2.56917        1.18329
H         -5.09402        0.90031        0.76682
H         -1.56590        2.89679       -0.68608
H         -2.84231        3.82019        0.11153
H         -1.84866        2.71481        1.05225
H         -4.33872       -0.78443        1.61438
H         -5.21475       -0.58638       -0.73354
H         -1.50580       -2.63921       -0.00556
H         -2.96051       -3.56207       -0.35295
H         -2.19475       -2.64846       -1.63388
C          2.81311       -1.24655        0.43196
C          3.25261       -2.24178        1.26911
C          4.58176       -1.95778        1.58243
C          4.90150       -0.79903        0.91924
O          3.82526       -0.35219        0.20867
H          2.67016       -3.07310        1.63026
H          5.22940       -2.53356        2.22324
H          5.86143       -0.29835        0.94660
C          0.73859       -2.74590       -0.96799
C          0.61361       -3.88654       -0.21386
C          0.30091       -4.92482       -1.09242
C          0.24879       -4.37260       -2.34884
O          0.51198       -3.03379       -2.28624
H          0.71687       -3.95352        0.85728
H          0.13260       -5.95769       -0.83478
H          0.02977       -4.90613       -3.26544
Fe         1.33554        2.11655       -0.88902
C          2.25194        3.89609       -0.34981
C          3.02053        2.75356        0.10959
C          2.17076        1.95666        0.97291
C          0.88373        2.61028        1.06693
C          0.92134        3.78859        0.22095
H          2.61052        4.69283       -1.00509
H          4.06227        2.53524       -0.13585
H          2.45634        1.03774        1.48845
H          0.05567        2.27487        1.69349
H          0.11738        4.51849        0.10205
