111
-148.55527395
P         -1.67962        2.82451        0.05459
P         -0.53534       -0.08224        0.49092
C         -1.63314        2.11458        1.72545
C         -1.20470        0.81605        1.90245
C         -0.51291        4.25251       -0.08146
C          0.57621        3.95150       -1.08978
C         -1.99776        2.87162        2.82057
H         -2.29605        3.89785        2.68227
C         -1.95645        2.31559        4.08759
H         -2.24541        2.90522        4.94226
C         -1.54021        1.00912        4.25924
H         -1.50283        0.57863        5.24638
C         -1.15230        0.25971        3.16317
H         -0.79063       -0.74949        3.28190
Pd        -1.32768        1.03619       -1.37219
Cl        -2.44107        2.13595       -2.97236
Cl        -0.78956       -0.80372       -2.54776
C         -1.42712        5.43097       -0.47526
C         -3.28027        3.68045       -0.31378
H          1.26313        4.79388       -1.20062
H          1.15972        3.07498       -0.79985
H          0.14449        3.74390       -2.07109
H         -1.33939        5.59611       -1.55781
H         -1.07365        6.36233       -0.00782
H         -3.48802        3.48716       -1.37401
C         -2.91719        5.16324       -0.11791
C         -4.42334        3.17804        0.54231
H         -0.09568        4.40121        0.92306
H         -3.10309        5.44065        0.92868
H         -3.58594        5.80247       -0.71459
H         -4.23369        3.36033        1.60038
H         -5.36067        3.67791        0.28779
H         -4.56786        2.10258        0.41642
C         -0.85406       -4.61940        0.61962
C          0.20089       -3.96252        1.30748
C          0.26213       -2.58011        1.24378
C         -0.71243       -1.85707        0.60657
C         -1.80242       -2.47845        0.05665
C         -1.92404       -3.85838        0.07767
O         -0.79475       -6.01968        0.40055
C          1.28293       -4.69024        2.12294
H          1.09346       -2.04949        1.67760
H         -2.55113       -1.87031       -0.42261
C         -3.20820       -4.47391       -0.50289
C          3.79788        1.17722       -0.12233
C          3.24876        0.12827       -0.90363
C          1.92363       -0.21550       -0.69875
C          1.18602        0.37319        0.29286
C          1.74074        1.31612        1.11783
C          3.05680        1.71608        0.96067
O          5.07080        1.71663       -0.44783
C          4.04591       -0.61246       -1.98784
H          1.43179       -0.92746       -1.33851
H          1.12300        1.75073        1.88335
C          3.65144        2.74073        1.93966
C          1.44083       -3.99735        3.49453
C          0.92112       -6.15941        2.40160
C          2.62163       -4.62378        1.36866
C         -4.43575       -3.71229        0.04392
C         -3.18206       -4.35150       -2.03581
C         -3.38360       -5.95024       -0.10678
C         -0.10529       -6.35903       -0.79136
H          2.15285       -4.53389        4.12113
H          1.80361       -2.97588        3.39311
H          0.48717       -3.96544        4.02071
H         -0.05857       -6.23111        2.87271
H          0.89231       -6.74015        1.48285
H          1.65163       -6.62533        3.06255
H          2.92573       -3.59033        1.20545
H          3.41127       -5.12007        1.93217
H          2.54970       -5.10603        0.39563
H         -4.45128       -2.67609       -0.28950
H         -5.36232       -4.17533       -0.29452
H         -4.43639       -3.71639        1.13354
H         -3.09427       -3.30951       -2.34193
H         -2.33789       -4.89201       -2.45932
H         -4.09398       -4.75514       -2.47485
H         -2.60644       -6.57154       -0.54531
H         -3.33316       -6.06642        0.97525
H         -4.34429       -6.33664       -0.44640
H         -0.60371       -5.91423       -1.65100
H          0.91777       -5.98883       -0.75041
H         -0.09245       -7.44342       -0.90314
C          5.02425        2.78144       -1.38953
C          5.54215       -0.67910       -1.63253
C          3.55125       -2.07144       -2.12192
C          3.84922        0.09854       -3.33526
C          3.43484        4.15976        1.39284
C          2.96541        2.63895        3.32115
C          5.15269        2.48217        2.16156
H          5.68435       -1.14668       -0.65878
H          6.09490       -1.25889       -2.37130
H          5.98622        0.31222       -1.59362
H          2.54139       -2.12086       -2.52607
H          4.19330       -2.63730       -2.79650
H          3.55771       -2.57286       -1.15464
H          2.79448        0.11899       -3.60880
H          4.19934        1.12720       -3.29333
H          4.39424       -0.41125       -4.12923
H          2.37227        4.37134        1.28077
H          3.85638        4.90579        2.06601
H          3.90221        4.28388        0.41919
H          1.92682        2.96450        3.28054
H          2.99045        1.61469        3.69225
H          3.46996        3.27177        4.05091
H          5.56291        3.16651        2.90376
H          5.71784        2.61665        1.24248
H          5.31920        1.46356        2.51038
H          5.58340        2.50575       -2.28338
H          3.99183        3.00485       -1.66151
H          5.48767        3.66909       -0.95917
