111
-148.55447957
P         -2.38723        2.36610       -0.12801
P         -0.00961        0.35877        0.47895
C         -1.74625        2.21970        1.55768
C         -0.74793        1.30888        1.82410
C         -2.51376        4.12933       -0.66693
C         -1.74284        4.33697       -1.95246
C         -2.26962        2.98791        2.57781
H         -3.03535        3.71383        2.35801
C         -1.80565        2.82329        3.87150
H         -2.21479        3.42132        4.66935
C         -0.82537        1.88795        4.14190
H         -0.46959        1.75330        5.15011
C         -0.29594        1.12731        3.11488
H          0.46840        0.39115        3.31011
Pd        -1.20407        0.89310       -1.44994
Cl        -2.66046        1.20552       -3.12459
Cl        -0.00270       -0.69078       -2.50390
C         -4.03476        4.34912       -0.80714
C         -4.15869        1.84344       -0.29049
H         -1.80575        5.37245       -2.29586
H         -0.68675        4.08444       -1.82847
H         -2.14172        3.70083       -2.74511
H         -4.22813        5.06803       -1.61658
H         -4.43127        4.81792        0.10542
H         -4.15904        0.92245       -0.88951
C         -4.78935        3.01528       -1.06946
C         -4.79852        1.59610        1.05960
H         -2.09321        4.74338        0.14101
H         -5.85118        3.10917       -0.79865
H         -4.77521        2.79601       -2.14728
H         -4.85081        2.52055        1.63651
H         -5.81831        1.21765        0.95702
H         -4.22565        0.87507        1.64679
C         -1.17068       -4.03422        0.70316
C          0.19369       -3.67308        0.84661
C          0.52814       -2.33129        0.77700
C         -0.43811       -1.36956        0.64520
C         -1.76659       -1.70434        0.61099
C         -2.17025       -3.02828        0.66886
O         -1.53109       -5.40121        0.56402
C          1.30990       -4.71310        1.03221
H          1.55658       -2.01831        0.80827
H         -2.48778       -0.91042        0.51639
C         -3.67219       -3.35136        0.63983
C          4.49448        1.05318        0.12029
C          3.83504        0.16806       -0.76902
C          2.46426        0.02102       -0.64784
C          1.76263        0.63679        0.35507
C          2.41489        1.41535        1.27664
C          3.78377        1.61488        1.21103
O          5.85146        1.40891       -0.10208
C          4.57024       -0.60699       -1.87373
H          1.91208       -0.56184       -1.36252
H          1.83470        1.88283        2.05102
C          4.47315        2.44975        2.30221
C          2.50424       -4.10392        1.80198
C          0.81257       -5.91589        1.85421
C          1.80586       -5.17975       -0.34492
C         -4.49059       -2.20686        1.27882
C         -4.12633       -3.51393       -0.81914
C         -3.98238       -4.62707        1.44336
C         -1.55879       -5.86258       -0.78101
H          3.23834       -4.87129        2.04661
H          3.01958       -3.34606        1.21378
H          2.17287       -3.64883        2.73499
H          0.42542       -5.58782        2.81830
H          0.01619       -6.44695        1.33877
H          1.61857       -6.62637        2.03602
H          2.15999       -4.33424       -0.93337
H          2.62617       -5.89005       -0.24481
H          1.01194       -5.66250       -0.90861
H         -4.46986       -1.31035        0.66179
H         -5.53634       -2.49285        1.38946
H         -4.10495       -1.95686        2.26688
H         -3.93621       -2.60180       -1.38462
H         -3.59339       -4.32307       -1.31178
H         -5.19293       -3.72983       -0.87469
H         -5.05424       -4.82148        1.47150
H         -3.50197       -5.49897        1.00698
H         -3.62822       -4.52945        2.46904
H         -0.87953       -6.70773       -0.89102
H         -2.56345       -6.20235       -1.03162
H         -1.26287       -5.06428       -1.46296
C          6.02140        2.53890       -0.94882
C          6.02036       -0.92347       -1.46500
C          3.87577       -1.96246       -2.13774
C          4.55088        0.21718       -3.16973
C          4.49661        3.92544        1.87652
C          3.71043        2.33600        3.64213
C          5.90635        1.94915        2.55863
H          6.04235       -1.47031       -0.52291
H          6.51703       -1.53066       -2.22140
H          6.60477       -0.01610       -1.33679
H          3.77092       -2.52658       -1.21185
H          2.88726       -1.83392       -2.57571
H          4.45744       -2.56664       -2.83350
H          3.52642        0.41171       -3.48636
H          5.04284        1.17749       -3.03336
H          5.05892       -0.31089       -3.97619
H          3.48460        4.29558        1.71395
H          4.96408        4.54495        2.64148
H          5.05117        4.06000        0.95102
H          2.73611        2.82018        3.59451
H          3.56271        1.29186        3.91688
H          4.26688        2.81761        4.44589
H          6.53318        2.07351        1.67905
H          5.90242        0.89133        2.81938
H          6.37312        2.49849        3.37584
H          5.05213        2.95025       -1.23338
H          6.60132        3.30066       -0.42783
H          6.56885        2.24789       -1.84505
