111
-148.54701507
P         -2.55413        2.13696        0.74502
P          0.09607        0.40077        0.43238
C         -1.46936        1.85439        2.17672
C         -0.30186        1.13928        2.02418
C         -3.50779        3.71108        0.99713
C         -3.45495        4.61844       -0.21082
C         -1.81585        2.33497        3.42434
H         -2.74237        2.86918        3.55330
C         -0.98401        2.11193        4.50810
H         -1.25592        2.48910        5.48046
C          0.19108        1.40415        4.34678
H          0.83795        1.22835        5.19049
C          0.53027        0.91083        3.10013
H          1.43453        0.33925        2.95859
Pd        -1.28107        1.47797       -1.09066
Cl        -2.49519        2.82592       -2.39302
Cl         0.05342        0.61313       -2.68368
C         -4.92739        3.20377        1.32394
C         -3.95148        0.92109        0.68432
H         -3.98149        5.55877       -0.03182
H         -2.42468        4.85300       -0.48755
H         -3.92560        4.13814       -1.06983
H         -5.66848        3.94381        0.98812
H         -5.05815        3.12820        2.41338
H         -3.85381        0.37039       -0.26155
C         -5.20479        1.81938        0.67565
C         -3.88654       -0.03145        1.85803
H         -3.05765        4.21734        1.86128
H         -6.02793        1.30653        1.19409
H         -5.55160        1.96586       -0.35784
H         -4.70434       -0.75561        1.83379
H         -2.94546       -0.58505        1.86518
H         -3.95375        0.51403        2.80123
C         -1.16296       -3.98123        0.33581
C         -1.06475       -3.30940        1.58375
C         -0.66462       -1.98332        1.58444
C         -0.45633       -1.30552        0.41163
C         -0.68067       -1.91518       -0.79398
C         -1.06979       -3.24002       -0.87142
O         -1.26717       -5.39538        0.29403
C         -1.38603       -3.96439        2.93794
H         -0.50308       -1.46460        2.51334
H         -0.52615       -1.33948       -1.68969
C         -1.37493       -3.81491       -2.26428
C          4.49395        0.71057       -0.71998
C          3.76290       -0.47186       -1.00799
C          2.42799       -0.51755       -0.64597
C          1.83694        0.51511        0.03308
C          2.56673        1.61127        0.41243
C          3.91159        1.71848        0.09505
O          5.76861        0.91689       -1.30722
C          4.35689       -1.70759       -1.70472
H          1.82403       -1.36765       -0.91134
H          2.06978        2.39287        0.96189
C          4.69206        2.91473        0.66653
C         -2.14540       -5.29331        2.78078
C         -0.07907       -4.20782        3.71037
C         -2.29270       -3.02343        3.76201
C         -0.05851       -4.00189       -3.03719
C         -2.12644       -5.15523       -2.19331
C         -2.27898       -2.82915       -3.03796
C         -0.00287       -6.03743        0.27710
H         -3.03946       -5.15540        2.17372
H         -1.52723       -6.04607        2.29737
H         -2.44939       -5.68917        3.74953
H          0.58222       -4.87703        3.16320
H          0.45612       -3.27313        3.87504
H         -0.27953       -4.65545        4.68346
H         -1.79374       -2.08633        4.00332
H         -3.20370       -2.78966        3.21210
H         -2.58088       -3.48925        4.70403
H         -0.24567       -4.39514       -4.03599
H          0.46741       -3.05378       -3.14381
H          0.60564       -4.69384       -2.52272
H         -2.41829       -5.49522       -3.18667
H         -1.50760       -5.93113       -1.74897
H         -3.02715       -5.05902       -1.58807
H         -1.77335       -1.88583       -3.23720
H         -2.57502       -3.24681       -3.99983
H         -3.18456       -2.61278       -2.47194
H          0.56800       -5.71683       -0.59290
H          0.55714       -5.78438        1.17587
H         -0.14835       -7.11706        0.23514
C          5.69565        1.57460       -2.56123
C          3.90427       -2.98682       -0.96431
C          3.85106       -1.76532       -3.15576
C          5.89511       -1.70069       -1.69264
C          4.28717        4.19549       -0.08159
C          4.35512        3.07718        2.16570
C          6.21543        2.72120        0.56866
H          2.82838       -3.13865       -1.03448
H          4.38233       -3.86982       -1.38769
H          4.16966       -2.93458        0.09118
H          4.22571       -2.65318       -3.66439
H          2.76242       -1.79389       -3.18670
H          4.17425       -0.89358       -3.72092
H          6.29543       -2.62551       -2.10737
H          6.29028       -0.87751       -2.28314
H          6.27083       -1.59281       -0.67576
H          4.52387        4.12421       -1.14134
H          3.21652        4.37662        0.00767
H          4.80912        5.06313        0.32113
H          4.56030        2.15447        2.70777
H          4.95255        3.87048        2.61428
H          3.30843        3.33316        2.32100
H          6.54491        2.69996       -0.46736
H          6.51407        1.78214        1.03327
H          6.74730        3.53161        1.06656
H          5.10104        0.98617       -3.25773
H          5.23112        2.55216       -2.44452
H          6.70208        1.69882       -2.96144
