45
-71.81477124
C          2.25047        1.46947        2.33536
P          1.49758        0.95450        0.75584
P         -0.98754        0.07543       -0.95318
C         -0.31996       -0.54993       -2.53236
Cl         1.48576       -1.72342        2.41395
H          1.47582        1.78843        3.02681
H         -0.83326       -0.07764       -3.36506
Cl        -1.38587       -2.56572        0.89161
C          0.44418        2.22377        0.02345
C         -0.62906        1.83063       -0.74554
C         -1.42971        2.77299       -1.35728
C         -1.14887        4.11861       -1.19795
C         -0.06856        4.51323       -0.43229
C          0.73297        3.56418        0.17761
H         -2.26846        2.44915       -1.95246
H         -1.77247        4.85794       -1.67298
H          0.15268        5.56099       -0.31197
H          1.58555        3.86040        0.76666
Pd         0.13515       -0.92406        0.80771
H         -0.45430       -1.62613       -2.59344
H          2.94169        2.29086        2.16992
H          0.74060       -0.32538       -2.59941
C         -5.42951       -0.69696       -0.34399
C         -4.73453        0.12356        0.52215
C         -3.38562        0.35456        0.31827
C         -2.74412       -0.23168       -0.74904
C         -3.43150       -1.05440       -1.61209
C         -4.78013       -1.28697       -1.41038
H         -6.47961       -0.88047       -0.18511
H         -5.23925        0.58023        1.35758
H         -2.82640        0.98808        0.98917
H         -2.91285       -1.51755       -2.43556
H         -5.32168       -1.93202       -2.08267
C          4.54293       -0.49432       -2.28976
C          4.33449       -1.20908       -1.12633
C          3.41505       -0.75672       -0.19819
C          2.71891        0.40552       -0.43593
C          2.91510        1.11690       -1.59700
C          3.83343        0.66679       -2.52828
H          5.25836       -0.84564       -3.01527
H          4.88091       -2.11982       -0.94416
H          3.21085       -1.31431        0.70196
H          2.34759        2.01675       -1.77130
H          3.99324        1.22094       -3.43858
H          2.79232        0.63603        2.77320
