171
-217.84105093
P         -1.72778        0.48936       -0.26320
P          1.53416       -0.23694       -0.37208
C         -1.06757        1.52943       -1.58308
C          0.82656       -1.10883       -1.76772
C         -0.20807        1.02954       -2.55777
C          0.41722        1.93469       -3.43735
C          0.12081        3.28396       -3.35031
C         -0.76508        3.75638       -2.40727
C         -1.34636        2.87466       -1.51827
C          1.08125       -2.45118       -1.90057
C          0.53261       -3.16030       -2.95147
C         -0.26855       -2.51186       -3.86797
C         -0.52916       -1.15541       -3.75564
C          0.03507       -0.43299       -2.68700
Cl         1.72841        1.12588        2.58643
Cl        -1.39848        0.31530        3.01354
C         -1.37682       -0.46869       -4.76944
C          1.41352        1.48418       -4.44679
H         -0.98973        4.80909       -2.35150
H         -2.02478        3.24373       -0.76747
H          1.71709       -2.94285       -1.18202
H          0.73057       -4.21460       -3.05518
H          0.59743        3.96740       -4.03288
H         -0.69768       -3.06160       -4.68847
C         -3.09425       -3.72032       -1.22304
C         -3.65668       -2.66291       -1.92922
C         -3.20178       -1.37944       -1.65015
C         -2.23806       -1.17554       -0.69300
C         -1.70494       -2.23165        0.00603
C         -2.11913       -3.53153       -0.25123
H         -3.43417       -4.71726       -1.42577
H         -3.61191       -0.52946       -2.16949
H         -0.97027       -2.04025        0.76883
C         -4.89194        2.62717        2.18165
C         -3.59964        3.13482        2.15994
C         -2.65669        2.46902        1.38889
C         -3.00038        1.34863        0.67321
C         -4.28250        0.85860        0.70878
C         -5.25912        1.49368        1.46679
H         -5.63013        3.11847        2.78853
H         -1.63242        2.80056        1.37020
H         -4.50889       -0.03433        0.15390
C          3.95693       -3.20471        2.10553
C          2.73088       -2.78138        2.59962
C          1.99092       -1.89562        1.82874
C          2.48186       -1.40603        0.64087
C          3.70827       -1.82309        0.18427
C          4.46421       -2.74456        0.89722
H          4.52822       -3.90487        2.68531
H          1.02726       -1.57215        2.17440
H          4.08510       -1.42764       -0.74103
C          4.08431        3.23397       -1.77861
C          3.05013        3.46747       -0.88069
C          2.30316        2.37779       -0.45404
C          2.56629        1.11829       -0.93142
C          3.57115        0.91051       -1.84504
C          4.37012        1.96503       -2.27057
H          4.68214        4.06807       -2.09424
H          1.50311        2.50631        0.25329
H          3.72412       -0.07646       -2.24589
Pd         0.02418        0.48666        1.27397
C         -6.03230       -2.09541       -2.49407
C         -4.78326       -2.86898       -2.95388
C         -5.15887       -4.35649       -3.10115
C         -4.33184       -2.34637       -4.32747
H         -6.35362       -2.43462       -1.50954
H         -5.83306       -1.02619       -2.43436
H         -6.85983       -2.24120       -3.18814
H         -5.51045       -4.76848       -2.15539
H         -5.95806       -4.48249       -3.83154
H         -4.30666       -4.94450       -3.44155
H         -3.43354       -2.86690       -4.65796
H         -5.10659       -2.50111       -5.07828
H         -4.11531       -1.27986       -4.28951
C         -1.93072       -4.48553        2.05279
C         -1.54196       -4.68885        0.57739
C         -0.00911       -4.70877        0.44146
C         -2.08323       -6.05393        0.11069
H         -3.01428       -4.48978        2.16898
H         -1.51953       -5.27644        2.67974
H         -1.56250       -3.53207        2.42769
H          0.42249       -5.53473        1.00579
H          0.28082       -4.83171       -0.60105
H          0.43410       -3.78527        0.80947
H         -1.83694       -6.23549       -0.93542
H         -1.64823       -6.86266        0.69787
H         -3.16532       -6.10949        0.22750
C         -1.76716        4.78342        2.79298
C         -3.23488        4.36111        3.00765
C         -3.43108        4.01785        4.49519
C         -4.14244        5.54234        2.61860
H         -1.08213        3.99112        3.09447
H         -1.57804        5.02554        1.74729
H         -1.52777        5.66647        3.38516
H         -4.46738        3.75692        4.70684
H         -2.80852        3.16884        4.77722
H         -3.16141        4.86153        5.13013
H         -5.19139        5.31620        2.80595
H         -3.88761        6.43445        3.19047
H         -4.03417        5.77763        1.55994
C         -6.98383        0.55267        3.02037
C         -6.69610        0.96217        1.56456
C         -6.90966       -0.26601        0.65912
C         -7.68090        2.06290        1.12829
H         -6.28162       -0.21298        3.34972
H         -6.89175        1.40267        3.69551
H         -7.99262        0.15282        3.12172
H         -6.25225       -1.08639        0.94659
H         -7.93582       -0.62642        0.73001
H         -6.71846       -0.01630       -0.38393
H         -8.70881        1.70228        1.16326
H         -7.61346        2.93640        1.77555
H         -7.47067        2.38459        0.10842
C          3.32444       -2.97372        5.03131
C          2.24345       -3.26705        3.97321
C          1.97279       -4.77987        3.91328
C          0.94932       -2.54747        4.40376
H          3.55642       -1.90915        5.05678
H          2.98764       -3.26943        6.02474
H          4.24674       -3.51331        4.82068
H          1.63825       -5.15503        4.88030
H          1.19891       -5.00377        3.18058
H          2.87021       -5.32984        3.63182
H          0.13253       -2.75897        3.71606
H          0.63519       -2.87427        5.39475
H          1.09555       -1.46802        4.44147
C          6.79425       -1.97454        0.42048
C          5.83505       -3.17611        0.35732
C          5.68980       -3.65065       -1.10196
C          6.43494       -4.33168        1.18172
H          6.92113       -1.63712        1.44894
H          7.77596       -2.23496        0.02531
H          6.40942       -1.13582       -0.15761
H          5.34200       -2.84883       -1.75172
H          6.64437       -4.00120       -1.49406
H          4.97539       -4.47089       -1.17015
H          5.76650       -5.19251        1.19173
H          7.38619       -4.65479        0.75891
H          6.62228       -4.02648        2.21092
C          1.53448        4.92765        0.55061
C          2.77089        4.88830       -0.37104
C          2.51133        5.82086       -1.56848
C          3.99053        5.38752        0.42346
H          1.68543        4.31358        1.43821
H          1.33318        5.94492        0.88581
H          0.64650        4.56973        0.03014
H          2.28668        6.83306       -1.23269
H          3.37729        5.87360       -2.22706
H          1.66543        5.46555       -2.15572
H          3.81870        6.39058        0.81348
H          4.19583        4.72751        1.26609
H          4.88239        5.41949       -0.20142
C          6.49087        0.66246       -2.56023
C          5.54940        1.68904       -3.21766
C          6.35571        2.96868       -3.51186
C          5.03099        1.12325       -4.55211
H          7.36401        0.47585       -3.18520
H          6.83883        1.02369       -1.59270
H          5.98634       -0.28989       -2.40358
H          7.19433        2.75326       -4.17393
H          5.73560        3.71992       -4.00065
H          6.76081        3.39628       -2.59486
H          5.85929        0.86982       -5.21363
H          4.44047        0.22081       -4.39812
H          4.40828        1.85364       -5.06687
H         -2.08934        0.20468       -4.29052
H          2.32216        2.08149       -4.36947
H         -1.93975       -1.18373       -5.36997
H         -0.76672        0.12098       -5.45377
H          1.02619        1.59746       -5.46026
H          1.69093        0.43932       -4.30211
