105
-153.06232725
Cl         0.09877        2.03918        3.06088
Pd        -0.47294        1.34567        1.00109
P         -1.10340        0.53286       -1.13160
N         -0.66120       -0.96264       -1.95490
C          0.22678       -1.97916       -1.60639
C          0.34689       -2.47148       -0.28222
C          1.27849       -3.49664       -0.00981
C          1.37046       -4.04833        1.39393
C          2.59288       -4.94299        1.65645
C          2.83092       -5.90891        0.49299
C          3.05874       -5.13252       -0.81169
C          2.04944       -4.03662       -1.04362
C          1.88219       -3.56364       -2.33879
C          0.98763       -2.56439       -2.61728
H          0.88043       -2.19856       -3.62359
H          2.47796       -3.98651       -3.12998
H          4.06117       -4.68833       -0.80734
H          3.67721       -6.57749        0.70588
H          3.48154       -4.31335        1.79065
H          1.37615       -3.21127        2.10077
C         -0.65886       -2.10931        0.74639
C         -0.25324       -1.49871        1.96402
C         -1.19527       -1.36637        2.98851
C         -2.48483       -1.80046        2.82374
C         -2.90246       -2.39148        1.63748
C         -4.32628       -2.88718        1.55307
C         -4.77588       -3.28463        0.13772
C         -3.67450       -4.06425       -0.58510
C         -2.39482       -3.22235       -0.69452
C         -1.98926       -2.54467        0.59219
H         -1.56503       -3.84836       -1.04564
H         -4.01476       -4.39087       -1.57801
H         -5.01581       -2.38304       -0.43893
H         -4.99312       -2.11788        1.96210
H         -3.19442       -1.68767        3.62594
H         -0.89740       -0.89411        3.90818
N          1.03863       -0.98547        2.15450
P          1.60548        0.22699        1.00947
C          2.60230       -0.33611       -0.35791
C          2.41926        0.25422       -1.58341
C          3.22954       -0.10647       -2.64430
C          4.23089       -1.05377       -2.47540
C          4.42126       -1.61063       -1.21710
C          3.60765       -1.25037       -0.15782
H          3.74918       -1.67598        0.82294
H          5.20927       -2.32962       -1.07241
C          5.10660       -1.43994       -3.61566
H          3.08559        0.34424       -3.61123
H          1.63750        0.98506       -1.70323
C          2.57019        1.51915        1.79990
C          3.28578        1.25094        2.94190
C          4.03173        2.25388        3.53427
C          4.07297        3.52605        2.97920
C          3.34454        3.77480        1.82364
C          2.59996        2.77085        1.23144
H          2.03576        2.95956        0.33113
H          3.36032        4.76107        1.39228
C          4.84923        4.61477        3.63462
H          4.58529        2.05429        4.43585
H          3.26259        0.25960        3.36454
H          1.17981       -0.54039        3.05211
H         -0.93855       -0.87481       -2.92450
C         -0.62618        1.92176       -2.17568
C         -0.91534        3.20730       -1.78514
C         -0.53485        4.27573       -2.57400
C          0.14463        4.06548       -3.76571
C          0.41370        2.76122       -4.15687
C          0.02882        1.69565       -3.36415
H          0.25308        0.68637       -3.66548
H          0.92828        2.58523       -5.08610
C          0.53783        5.21381       -4.62840
H         -0.76514        5.28199       -2.26812
H         -1.44673        3.36883       -0.86271
C         -2.90028        0.51151       -1.11300
C         -3.56125        0.77758       -2.28886
C         -4.94440        0.76010       -2.32149
C         -5.67437        0.48732       -1.17276
C         -4.98869        0.21296        0.00193
C         -3.60633        0.21539        0.02685
H         -3.07010        0.00599        0.93849
H         -5.54490        0.00021        0.89860
C         -7.16233        0.44664       -1.20689
H         -5.46542        0.96261       -3.24159
H         -2.99201        0.99969       -3.17798
Cl        -2.37982        2.53737        0.94693
H          3.04544       -5.81762       -1.66909
H          2.47803       -5.49340        2.60094
H          1.95786       -6.56397        0.37977
H          0.45056       -4.60564        1.60695
H         -3.45726       -4.98539       -0.02989
H         -2.52760       -2.45149       -1.46253
H         -4.43103       -3.74755        2.22491
H         -5.70754       -3.86695        0.17190
H          5.48043       -2.45797       -3.49754
H          4.56313       -1.39558       -4.56052
H          5.96544       -0.77150       -3.68872
H          5.21668        5.33334        2.90066
H          4.22886        5.15362        4.35201
H          5.71307        4.21650        4.16868
H          0.74267        6.10310       -4.03066
H          1.43799        4.98604       -5.20107
H         -0.25741        5.45826       -5.33393
H         -7.51762       -0.56632       -1.40124
H         -7.58594        0.77567       -0.25697
H         -7.55688        1.09795       -1.98798
