105
-153.06709845
Cl         0.00413        1.88571        3.08592
Pd        -0.49891        1.26967        0.97577
P         -1.12112        0.49477       -1.15509
N         -0.74863       -1.02128       -1.97020
C          0.18079       -2.00353       -1.62980
C          0.32636       -2.48507       -0.30415
C          1.29497       -3.47355       -0.03231
C          1.42430       -4.00057        1.37734
C          2.26052       -5.28308        1.50864
C          3.52665       -5.20206        0.65130
C          3.16433       -5.01171       -0.82884
C          2.09543       -3.97399       -1.06316
C          1.89781       -3.52080       -2.36137
C          0.95697       -2.56547       -2.64258
H          0.82722       -2.21299       -3.65095
H          2.50649       -3.92453       -3.15274
H          4.05650       -4.73716       -1.40628
H          4.13975       -4.35668        0.98823
H          2.51455       -5.47836        2.56008
H          1.86599       -3.21310        1.99866
C         -0.66620       -2.13108        0.73890
C         -0.23491       -1.54879        1.96242
C         -1.16150       -1.41882        3.00138
C         -2.46231       -1.81980        2.84209
C         -2.90582       -2.37860        1.64964
C         -4.34409       -2.83211        1.57120
C         -4.81384       -3.20873        0.15684
C         -3.73710       -4.01083       -0.57825
C         -2.44005       -3.19707       -0.69438
C         -2.00663       -2.53840        0.59301
H         -1.62746       -3.83773       -1.05907
H         -4.09285       -4.32562       -1.56956
H         -5.03465       -2.29724       -0.41204
H         -4.98534       -2.04523        1.98771
H         -3.16123       -1.70423        3.65321
H         -0.84430       -0.96733        3.92500
N          1.06087       -1.03961        2.13574
P          1.59593        0.18824        0.98935
C          2.61547       -0.36049       -0.36715
C          2.40989        0.19272       -1.60609
C          3.23401       -0.16077       -2.65857
C          4.27079       -1.06507       -2.46835
C          4.48182       -1.58484       -1.19761
C          3.65509       -1.23057       -0.14650
H          3.81377       -1.62597        0.84421
H          5.29565       -2.27097       -1.03683
C          5.16196       -1.44452       -3.59877
H          3.07293        0.26157       -3.63556
H          1.60029        0.88911       -1.74270
C          2.51757        1.51132        1.77995
C          3.25517        1.26310        2.91235
C          3.96816        2.29004        3.50417
C          3.94412        3.56959        2.96517
C          3.20878        3.79375        1.80902
C          2.49731        2.76589        1.21732
H          1.92308        2.93724        0.31984
H          3.19536        4.77904        1.37531
C          4.72644        4.67176        3.59015
H          4.54887        2.10279        4.39120
H          3.27773        0.26795        3.32604
H          1.22300       -0.61121        3.03792
H         -1.01950       -0.92490       -2.94070
C         -0.60636        1.86723       -2.19971
C         -0.82845        3.15924       -1.78713
C         -0.41540        4.21898       -2.57143
C          0.21763        3.99280       -3.78566
C          0.43460        2.68260       -4.18949
C          0.01793        1.62559       -3.40142
H          0.19755        0.61086       -3.71432
H          0.93639        2.49523       -5.12348
C          0.69167        5.13280       -4.61828
H         -0.58160        5.23081       -2.24319
H         -1.33047        3.33233       -0.84992
C         -2.91637        0.54625       -1.09753
C         -3.59168        0.83972       -2.25851
C         -4.97489        0.87460       -2.26143
C         -5.68987        0.62573       -1.09790
C         -4.99004        0.32264        0.06127
C         -3.60858        0.27477        0.05711
H         -3.06358        0.03945        0.95676
H         -5.53477        0.12611        0.96869
C         -7.17872        0.63977       -1.10026
H         -5.50747        1.09875       -3.16981
H         -3.03348        1.04143       -3.15943
Cl        -2.29308        2.63230        1.02822
H          2.82362       -5.96452       -1.25132
H          1.66004       -6.14324        1.18691
H          4.15206       -6.09512        0.79152
H          0.41892       -4.16610        1.78470
H         -3.53616       -4.93875       -0.02825
H         -2.56553       -2.41771       -1.45471
H         -4.47035       -3.69229        2.23957
H         -5.75961       -3.76764        0.19379
H          4.62886       -1.40559       -4.54980
H          6.01599       -0.76894       -3.66285
H          5.54297       -2.45932       -3.47528
H          4.23080        5.63346        3.45044
H          4.84274        4.51311        4.66313
H          5.72208        4.73857        3.14951
H          0.69263        4.87320       -5.67785
H          0.04967        6.00576       -4.49247
H          1.70710        5.41886       -4.34072
H         -7.56943        0.98866       -0.14336
H         -7.56582        1.30143       -1.87636
H         -7.57502       -0.36032       -1.28146
