105
-153.06293251
Cl        -0.16327        3.31215        2.18607
Pd        -0.47076        1.94196        0.43327
P         -1.01958        0.39385       -1.30337
N         -0.98509       -1.38218       -1.35990
C          0.04066       -2.33847       -1.27206
C          0.13712       -3.09399       -0.07632
C          1.15180       -4.05219        0.07335
C          1.30088       -4.74872        1.40222
C          2.20258       -5.99277        1.35695
C          3.48123       -5.71461        0.55858
C          3.14897       -5.29707       -0.88345
C          2.04216       -4.27727       -0.97998
C          1.91892       -3.53647       -2.15328
C          0.94302       -2.58278       -2.30202
H          0.86907       -2.01451       -3.21098
H          2.61271       -3.71899       -2.95643
H          4.04375       -4.89824       -1.37835
H          4.04592       -4.91123        1.04836
H          2.44490       -6.33708        2.37225
H          1.70137       -4.02852        2.12586
C         -0.68286       -2.61320        1.06820
C         -0.25798       -1.39502        1.64646
C         -1.08385       -0.73467        2.54745
C         -2.30290       -1.27070        2.87891
C         -2.75397       -2.46083        2.31042
C         -4.13705       -2.94365        2.67620
C         -4.50823       -4.32230        2.10196
C         -3.96379       -4.49857        0.68008
C         -2.43369       -4.36677        0.67162
C         -1.94736       -3.13406        1.38714
H         -1.98421       -5.24903        1.14177
H         -4.39698       -3.72979        0.02777
H         -5.59680       -4.47302        2.12163
H         -4.86294       -2.19727        2.33174
H         -2.94198       -0.75338        3.57447
H         -0.76047        0.20582        2.95734
N          0.93488       -0.85947        1.19658
P          1.43020        0.80676        1.25232
C          2.40195        1.14443       -0.21572
C          3.31929        2.16674       -0.25353
C          4.00154        2.42704       -1.42858
C          3.77166        1.66360       -2.56622
C          2.83720        0.63936       -2.50573
C          2.15293        0.38536       -1.33267
H          1.38485       -0.36766       -1.29544
H          2.62913        0.06054       -3.38914
C          4.46587        1.97835       -3.84506
H          4.71221        3.23459       -1.47207
H          3.48610        2.76306        0.62913
C          2.46258        1.00542        2.70466
C          3.42256        0.04840        2.93466
C          4.25665        0.16050        4.03359
C          4.12955        1.22949        4.91050
C          3.15979        2.18972        4.65536
C          2.32889        2.07372        3.55778
H          1.56852        2.80970        3.36261
H          3.05969        3.02888        5.32243
C          5.04295        1.36441        6.07900
H          5.01329       -0.58347        4.21551
H          3.51424       -0.78320        2.25317
H          1.56850       -1.43140        0.65299
H         -1.67601       -1.49299       -0.62683
C         -0.45506        1.08217       -2.85519
C         -0.03862        2.38925       -2.94707
C          0.44288        2.87314       -4.14921
C          0.49225        2.05637       -5.27114
C          0.04771        0.74545       -5.16329
C         -0.42988        0.26302       -3.95775
H         -0.78945       -0.74933       -3.86808
H          0.08364        0.10341       -6.02673
C          1.04672        2.56317       -6.55676
H          0.78659        3.89078       -4.22181
H         -0.10210        3.03065       -2.08382
C         -2.80631        0.61737       -1.21136
C         -3.51007        1.11927       -2.27932
C         -4.88154        1.26985       -2.18793
C         -5.55686        0.90859       -1.02970
C         -4.82694        0.40690        0.03911
C         -3.45571        0.25937       -0.05490
H         -2.88780       -0.13425        0.77164
H         -5.33805        0.13703        0.94737
C         -7.02954        1.09836       -0.91885
H         -5.43661        1.67421       -3.01708
H         -2.98442        1.39812       -3.17784
Cl        -2.10328        3.26962       -0.35732
H          2.86061       -6.17990       -1.46638
H          1.65592       -6.82076        0.88852
H          4.14545       -6.59039        0.56944
H          0.30556       -5.01451        1.77861
H         -4.27931       -5.46152        0.25434
H         -2.05710       -4.35714       -0.35912
H         -4.22604       -2.95277        3.76998
H         -4.09285       -5.10817        2.74539
H          3.91986        2.74047       -4.40284
H          5.47505        2.35075       -3.66389
H          4.54733        1.09330       -4.47761
H          4.56045        1.90248        6.89619
H          5.34296        0.38672        6.45884
H          5.94625        1.91040        5.80344
H          0.52080        2.13040       -7.40893
H          0.95381        3.64781       -6.62680
H          2.10370        2.30946       -6.64901
H         -7.47290        0.35754       -0.25199
H         -7.26284        2.08846       -0.52499
H         -7.51383        0.99999       -1.89138
