105
-153.05881084
Cl         0.31459        3.55780        1.70798
Pd        -0.11128        1.97966        0.15869
P         -0.71825        0.23362       -1.33154
N          0.14090       -1.18675       -1.95487
C          0.23107       -2.50812       -1.52844
C         -0.11706       -2.96766       -0.22882
C          0.20533       -4.29098        0.14460
C          0.02108       -4.71202        1.58490
C          0.83001       -5.95864        1.97142
C          0.62820       -7.06944        0.93680
C          1.08500       -6.61126       -0.45788
C          0.74162       -5.17864       -0.79074
C          1.00356       -4.72657       -2.07702
C          0.77270       -3.42284       -2.43110
H          1.02350       -3.08418       -3.42151
H          1.42404       -5.41168       -2.79384
H          2.17125       -6.73382       -0.54579
H          1.15511       -7.98495        1.24078
H          1.89481       -5.69899        2.02320
H          0.29078       -3.87165        2.23721
C         -0.72514       -2.08479        0.80282
C          0.08517       -1.08529        1.40159
C         -0.38929       -0.39613        2.51772
C         -1.63796       -0.66256        3.01649
C         -2.46862       -1.60927        2.42341
C         -3.82643       -1.84679        3.04322
C         -4.75874       -2.77522        2.24319
C         -3.97866       -3.90435        1.56183
C         -2.91380       -3.32060        0.62369
C         -2.01520       -2.32268        1.30979
H         -2.31884       -4.11876        0.16540
H         -4.65478       -4.58027        1.01936
H         -5.28623       -2.19252        1.47858
H         -4.31036       -0.87462        3.20164
H         -1.99682       -0.12219        3.87601
H          0.22589        0.36395        2.96320
N          1.25280       -0.72331        0.73713
P          1.80219        0.89287        0.97669
C          2.91632        1.37270       -0.33777
C          3.17701        2.70757       -0.53677
C          3.95037        3.10068       -1.61387
C          4.46368        2.15838       -2.49560
C          4.17746        0.81622       -2.28250
C          3.40417        0.42434       -1.20487
H          3.16770       -0.61519       -1.04604
H          4.55558        0.08071       -2.97185
C          5.26214        2.58292       -3.67854
H          4.14778        4.14522       -1.78392
H          2.74175        3.43396        0.13178
C          2.60513        0.96493        2.57782
C          2.44413        2.03479        3.42440
C          3.07944        2.04520        4.65114
C          3.87611        0.97734        5.04211
C          4.03229       -0.09297        4.17129
C          3.39448       -0.09946        2.94298
H          3.49978       -0.93346        2.26642
H          4.65567       -0.92168        4.46054
C          4.58149        0.99756        6.35356
H          2.95931        2.88458        5.31459
H          1.81255        2.85255        3.12294
H          1.11681       -0.83659       -0.26665
H          0.37146       -0.99836       -2.92261
C         -0.59526        1.39305       -2.70323
C          0.66248        1.81043       -3.06733
C          0.81575        2.71295       -4.10361
C         -0.29175        3.19721       -4.78604
C         -1.55456        2.76999       -4.39718
C         -1.70498        1.86792       -3.36030
H         -2.68500        1.54354       -3.05186
H         -2.42091        3.15429       -4.90792
C         -0.13156        4.19355       -5.88094
H          1.79870        3.05269       -4.38154
H          1.52024        1.44454       -2.52719
C         -2.44895       -0.20089       -1.17111
C         -3.23349        0.29139       -0.15576
C         -4.57649       -0.03189       -0.10556
C         -5.14271       -0.85305       -1.07178
C         -4.33486       -1.34046       -2.08965
C         -2.99046       -1.01537       -2.13691
H         -2.35647       -1.39429       -2.92321
H         -4.76450       -1.97859       -2.84280
C         -6.58702       -1.21250       -1.02463
H         -5.19351        0.35652        0.68647
H         -2.79495        0.93001        0.59345
Cl        -2.01926        3.06252       -0.34160
H          0.65503       -7.26241       -1.22969
H          0.56063       -6.30675        2.97868
H         -0.43461       -7.34053        0.90174
H         -1.04141       -4.89917        1.77257
H         -3.49166       -4.52225        2.32639
H         -3.40585       -2.81912       -0.21592
H         -3.67385       -2.26124        4.04700
H         -5.54715       -3.18553        2.88977
H          4.61792        2.73753       -4.54521
H          5.79185        3.51612       -3.48223
H          6.00585        1.82958       -3.94199
H          4.01740        1.56468        7.09534
H          4.71753       -0.01226        6.74318
H          5.56628        1.45656        6.25646
H         -0.92214        4.09078       -6.62557
H         -0.16986        5.21008       -5.48714
H          0.82349        4.06647       -6.39263
H         -7.10624       -0.84912       -1.91252
H         -6.71646       -2.29478       -0.97760
H         -7.07732       -0.78002       -0.15143
