111
-148.55163000
P         -2.36294        2.42136        0.34625
P         -0.11320        0.20000        0.55019
C         -1.86690        1.79520        1.96906
C         -0.90532        0.81253        2.05185
C         -2.22341        4.26297        0.27173
C         -1.06677        4.67529       -0.61268
C         -2.45730        2.28402        3.11641
H         -3.19919        3.06266        3.04207
C         -2.09335        1.77029        4.34916
H         -2.55475        2.14897        5.24655
C         -1.14504        0.76849        4.42934
H         -0.86738        0.36259        5.38816
C         -0.55026        0.28687        3.27682
H          0.18351       -0.50274        3.32254
Pd        -1.26604        1.14114       -1.23041
Cl        -2.35350        2.35784       -2.77404
Cl        -0.19619       -0.20004       -2.67888
C         -3.60984        4.70121       -0.23713
C         -4.17052        2.21705       -0.00705
H         -1.20307        4.29706       -1.62752
H         -0.97798        5.76256       -0.67385
H         -0.11994        4.27674       -0.23966
H         -3.56033        4.82754       -1.32740
H         -3.87022        5.69266        0.16337
H         -4.23424        1.87521       -1.04882
C         -4.70731        3.65507        0.11014
C         -4.82382        1.21423        0.91997
H         -2.06693        4.60118        1.30452
H         -5.06057        3.81935        1.13738
H         -5.59238        3.78643       -0.53083
H         -4.35276        0.23248        0.83555
H         -4.73800        1.52997        1.96058
H         -5.88715        1.09949        0.69752
C         -1.02455       -4.19917       -0.15236
C          0.27928       -3.70829       -0.41979
C          0.53401       -2.36760       -0.18822
C         -0.42380       -1.54799        0.34719
C         -1.65232       -2.03910        0.70377
C         -1.96914       -3.37397        0.51138
O         -1.39986       -5.49586       -0.59314
C          1.39541       -4.58270       -1.01109
H          1.48369       -1.93695       -0.45097
H         -2.36949       -1.35673        1.12693
C         -3.33554       -3.88965        0.98857
C          4.36640        1.03113        0.33026
C          3.68617        1.21979        1.56064
C          2.32634        0.96088        1.60644
C          1.63487        0.60027        0.47896
C          2.27108        0.53163       -0.73264
C          3.62690        0.77790       -0.85247
O          5.78593        1.05496        0.29175
C          4.40895        1.65992        2.84347
H          1.78849        1.03020        2.53428
H          1.68353        0.26718       -1.59370
C          4.27021        0.73353       -2.24724
C          1.35228       -4.48296       -2.54365
C          2.78083       -4.10086       -0.52235
C          1.25064       -6.05000       -0.56909
C         -3.79009       -3.12726        2.25445
C         -4.37630       -3.66927       -0.11957
C         -3.26854       -5.38084        1.36534
C         -1.96342       -5.51624       -1.89882
H          0.39932       -4.83302       -2.93372
H          1.48143       -3.44982       -2.86572
H          2.14276       -5.08028       -2.99718
H          3.56395       -4.78877       -0.84030
H          3.03432       -3.12164       -0.92480
H          2.80858       -4.04129        0.56532
H          1.23431       -6.12338        0.51778
H          0.33092       -6.48968       -0.94639
H          2.07944       -6.65387       -0.93778
H         -4.01858       -2.08476        2.03922
H         -4.69327       -3.57262        2.67098
H         -3.01741       -3.15667        3.02229
H         -4.45172       -2.61195       -0.37273
H         -4.10694       -4.20757       -1.02533
H         -5.36132       -4.01220        0.19593
H         -2.50078       -5.55182        2.11919
H         -4.22088       -5.72706        1.76618
H         -3.03145       -5.99824        0.50264
H         -2.97010       -5.93179       -1.85687
H         -2.00350       -4.50683       -2.31042
H         -1.35940       -6.14902       -2.54887
C          6.38945       -0.21810        0.48604
C          3.45279        2.45083        3.76527
C          4.90342        0.41773        3.59991
C          5.59282        2.58993        2.52129
C          3.26475        1.20387       -3.32366
C          5.48643        1.67355       -2.33003
C          4.69096       -0.70902       -2.56684
H          3.99352        2.87398        4.61154
H          2.98343        3.27186        3.22391
H          2.66806        1.81574        4.17368
H          5.40873        0.69849        4.52366
H          4.06908       -0.23487        3.85609
H          5.60135       -0.15851        2.99723
H          5.25810        3.45159        1.94471
H          6.06460        2.95431        3.43351
H          6.35450        2.07547        1.94057
H          2.44446        0.49857       -3.44709
H          2.84445        2.17492       -3.06348
H          3.75227        1.29887       -4.29354
H          5.90053        1.69108       -3.33783
H          5.20358        2.69088       -2.06169
H          6.27831        1.35924       -1.65499
H          3.82575       -1.37136       -2.56391
H          5.39913       -1.08556       -1.83231
H          5.15840       -0.77083       -3.54920
H          7.06508       -0.17477        1.34021
H          5.62707       -0.97781        0.66341
H          6.97127       -0.48701       -0.39536
