59
-75.80685224
Cl         1.66487        0.46761        2.34344
P          1.62273       -0.10402       -0.86300
P         -1.59084       -0.13982       -0.77005
C          0.59207        0.25397       -2.35237
H          0.33414        1.31583       -2.35715
H          1.18853        0.05632       -3.24859
C         -0.64565       -0.59459       -2.28741
H         -0.38628       -1.65502       -2.22713
H         -1.29433       -0.45847       -3.15852
C          2.62968       -1.62434       -1.22576
H          2.47230       -1.79720       -2.29911
C          3.00354        1.11055       -0.61646
H          3.09752        1.24063        0.46856
C         -3.01506       -1.27494       -0.45126
H         -3.22871       -1.19788        0.62213
C         -2.54846        1.41532       -1.09552
H         -2.18192        1.80990       -2.05083
C          4.08199       -1.17094       -0.99537
H          4.39755       -1.45315        0.01626
H          4.76253       -1.70867       -1.67279
C          4.23123        0.36377       -1.16510
H          4.34624        0.60686       -2.23045
H          5.14941        0.72696       -0.67857
C         -4.13775       -0.60728       -1.26250
H         -4.07315       -0.95346       -2.30386
H         -5.12309       -0.93943       -0.90018
C         -4.01543        0.94156       -1.21442
H         -4.57621        1.31573       -0.34733
H         -4.49783        1.39851       -2.09108
C          2.20292       -2.86455       -0.44169
H          2.78476       -3.72655       -0.79671
H          1.16275       -3.09896       -0.70107
C          2.75297        2.46097       -1.27724
H          3.68265        3.04665       -1.25786
H          2.53620        2.30192       -2.34142
C         -2.72420       -2.72351       -0.81915
H         -3.66180       -3.29650       -0.80534
H         -2.37723       -2.76510       -1.85946
C         -2.32579        2.42807        0.02169
H         -2.71429        2.00798        0.95930
H         -1.24930        2.55035        0.19450
C          2.34281       -2.75031        1.06967
H          1.92661       -3.61998        1.58361
H          1.82814       -1.87126        1.45472
H          3.38583       -2.66830        1.37800
C          1.63339        3.24633       -0.61447
H          0.69584        2.69274       -0.64408
H          1.46175        4.20983       -1.09971
H          1.85543        3.44050        0.43660
C         -1.70763       -3.36296        0.11340
H         -1.44723       -4.37895       -0.19169
H         -2.08653       -3.41188        1.13610
H         -0.78793       -2.77892        0.14824
C         -2.96409        3.77998       -0.26081
H         -2.79246        4.49105        0.55050
H         -2.56199        4.22114       -1.17486
H         -4.04347        3.69081       -0.39519
Cl        -1.59691        0.03356        2.36784
Pd         0.05641        0.02003        0.84886
