111
-148.55207027
P         -2.19968        2.23347        1.30011
P          0.12116        0.22377        0.47119
C         -1.15110        1.48864        2.57444
C         -0.16376        0.59969        2.21179
C         -2.37299        4.05124        1.59063
C         -2.01182        4.82590        0.34234
C         -1.34789        1.79463        3.90584
H         -2.11093        2.50418        4.18152
C         -0.56478        1.19137        4.87479
H         -0.71883        1.42856        5.91481
C          0.40813        0.28062        4.51057
H          1.01260       -0.19588        5.26474
C          0.60719       -0.01808        3.17458
H          1.35737       -0.73317        2.87427
Pd        -1.49543        1.38475       -0.73191
Cl        -3.20836        2.49065       -1.66763
Cl        -0.79298        0.34663       -2.59424
C         -3.84789        4.19979        2.01812
C         -3.97601        1.71221        1.40638
H         -2.09983        5.90372        0.49896
H         -0.98882        4.61173        0.02333
H         -2.67567        4.55707       -0.48110
H         -4.22671        5.17994        1.69356
H         -3.92144        4.20326        3.11558
H         -4.19472        1.16911        0.47695
C         -4.73211        3.05585        1.44742
C         -4.23084        0.82384        2.60582
H         -1.69165        4.30803        2.41326
H         -5.65119        2.94266        2.04059
H         -5.06458        3.32640        0.43441
H         -5.26603        0.47561        2.63378
H         -3.57916       -0.05284        2.59868
H         -4.04289        1.36526        3.53407
C         -1.18084       -4.07392       -0.26922
C         -2.14122       -3.06836        0.01126
C         -1.68936       -1.78418        0.26622
C         -0.36005       -1.46929        0.15659
C          0.55937       -2.41149       -0.22240
C          0.17672       -3.71817       -0.47590
O         -1.57125       -5.43897       -0.30683
C         -3.65210       -3.34700        0.04364
H         -2.37557       -1.00608        0.55381
H          1.58811       -2.11065       -0.31356
C          1.23308       -4.73077       -0.94513
C          4.42785        0.97091       -0.84852
C          4.04690        1.26383        0.48565
C          2.73704        1.01975        0.86327
C          1.80705        0.57486       -0.04101
C          2.14812        0.40474       -1.35738
C          3.43945        0.62466       -1.80382
O          5.79824        0.99717       -1.22144
C          5.03629        1.81206        1.52633
H          2.42604        1.17442        1.88038
H          1.37364        0.10917       -2.04171
C          3.75356        0.47304       -3.30087
C         -4.07248       -3.71719        1.47368
C         -4.44302       -2.09337       -0.39628
C         -4.02869       -4.47728       -0.93140
C          0.61138       -5.79314       -1.86993
C          2.34199       -4.02356       -1.75651
C          1.87098       -5.40351        0.27947
C         -1.52244       -6.08911        0.95683
H         -3.83577       -2.90963        2.16609
H         -5.14431       -3.90590        1.52882
H         -3.55571       -4.61010        1.81758
H         -4.36996       -1.29367        0.33830
H         -4.07466       -1.71722       -1.35044
H         -5.50171       -2.32364       -0.51276
H         -5.10746       -4.62871       -0.95859
H         -3.69365       -4.23968       -1.94053
H         -3.57147       -5.42014       -0.64205
H         -0.12550       -6.39492       -1.34377
H          0.11412       -5.32070       -2.71640
H          1.37278       -6.46957       -2.25747
H          2.94027       -3.36107       -1.13266
H          3.02419       -4.75076       -2.19627
H          1.90947       -3.43744       -2.56678
H          2.63340       -6.12136       -0.02199
H          2.34126       -4.66209        0.92503
H          1.12645       -5.93198        0.87028
H         -1.18199       -5.39697        1.72801
H         -2.51329       -6.46246        1.21492
H         -0.84116       -6.93821        0.90451
C          6.46972       -0.24521       -1.05468
C          5.70853        0.63925        2.25586
C          6.10053        2.70549        0.86320
C          4.30332        2.68604        2.56978
C          4.86099        1.45081       -3.73388
C          4.18211       -0.97331       -3.58939
C          2.50729        0.79491       -4.15709
H          6.41097        0.99817        3.00769
H          4.96464        0.02013        2.75685
H          6.25412        0.00402        1.56229
H          5.62914        3.51447        0.30613
H          6.76168        3.14690        1.60853
H          6.71828        2.13971        0.17032
H          5.01624        3.18031        3.22939
H          3.70981        3.45793        2.08048
H          3.64293        2.09333        3.20108
H          4.58192        2.47648       -3.49497
H          5.79995        1.23468       -3.23019
H          5.04082        1.38911       -4.80687
H          3.38727       -1.66884       -3.32376
H          4.40977       -1.10983       -4.64625
H          5.06549       -1.24588       -3.01735
H          1.72662        0.04634       -4.03050
H          2.76041        0.81583       -5.21676
H          2.09490        1.76805       -3.89222
H          6.88081       -0.56901       -2.01072
H          7.29552       -0.12364       -0.35398
H          5.78143       -1.00304       -0.67820
