171
-217.84314323
P         -1.67062        0.15158       -0.35694
P          1.65860       -0.23428       -0.37351
C         -1.11217        0.94649       -1.86303
C          1.02446       -1.48584       -1.48675
C         -0.24482        0.28829       -2.72784
C          0.25639        0.99279       -3.83948
C         -0.16334        2.29311       -4.06661
C         -1.04941        2.91494       -3.21318
C         -1.51387        2.23815       -2.10319
C          1.42431       -2.78740       -1.30911
C          0.93251       -3.78117       -2.13206
C          0.02519       -3.46139       -3.11971
C         -0.38864       -2.15377       -3.31453
C          0.13604       -1.13476       -2.49690
Cl         1.60769        1.16491        2.59876
Cl        -1.37205        0.13078        2.96435
C         -1.35539       -1.84419       -4.40258
C          1.22754        0.37122       -4.77959
H         -1.37059        3.92587       -3.40427
H         -2.19464        2.72043       -1.42058
H          2.12883       -3.02632       -0.52870
H          1.25613       -4.80088       -2.00173
H          0.21601        2.82045       -4.92571
H         -0.36994       -4.23464       -3.75677
C         -4.57649        2.68689        2.03946
C         -5.00474        1.46251        1.54128
C         -4.10979        0.72711        0.77623
C         -2.84115        1.19350        0.53560
C         -2.43384        2.40414        1.04043
C         -3.29819        3.17778        1.80488
H         -5.24506        3.27197        2.64229
H         -4.39932       -0.22911        0.37762
H         -1.42362        2.72749        0.85715
C         -3.60483       -3.90545       -0.85931
C         -4.07520       -2.84360       -1.62402
C         -3.43287       -1.61774       -1.49592
C         -2.38477       -1.46846       -0.62068
C         -1.94074       -2.52363        0.13592
C         -2.54451       -3.76977        0.02928
H         -4.08613       -4.86012       -0.94683
H         -3.76720       -0.76381       -2.06155
H         -1.12972       -2.36691        0.82698
C          4.48324       -1.87596        2.77735
C          4.96323       -0.93611        1.87509
C          4.09170       -0.47205        0.89764
C          2.80351       -0.94355        0.82796
C          2.34670       -1.87308        1.73130
C          3.17925       -2.35087        2.73574
H          5.13915       -2.23338        3.54978
H          4.40405        0.28216        0.19780
H          1.32250       -2.19771        1.66677
C          3.66638        3.12830       -2.63090
C          2.61468        3.43115       -1.77437
C          2.01202        2.38447       -1.08754
C          2.44307        1.09570       -1.27610
C          3.47727        0.81029       -2.13367
C          4.11985        1.82874       -2.82694
H          4.14849        3.93607       -3.14831
H          1.20201        2.56219       -0.40122
H          3.79120       -0.21378       -2.25142
Pd         0.04074        0.31608        1.22255
C         -6.31345       -0.53785        2.32064
C         -6.41378        0.90955        1.79869
C         -7.20611        0.93135        0.48059
C         -7.17170        1.74739        2.84668
H         -7.29960       -0.93405        2.56206
H         -5.86521       -1.20084        1.58186
H         -5.70265       -0.57935        3.22222
H         -7.29831        1.94948        0.10285
H         -6.70707        0.33751       -0.28336
H         -8.20931        0.52866        0.61928
H         -7.33055        2.76721        2.49709
H         -8.15159        1.31611        3.05120
H         -6.62258        1.78501        3.78739
C         -3.83274        5.62319        2.02631
C         -2.85896        4.50425        2.44026
C         -1.44132        4.90567        1.99041
C         -2.85997        4.34876        3.97155
H         -3.52219        6.58238        2.44029
H         -3.86814        5.71975        0.94128
H         -4.84378        5.42258        2.37827
H         -1.39600        5.01257        0.90723
H         -1.14990        5.85937        2.43013
H         -0.70523        4.16354        2.29909
H         -2.18698        3.54693        4.27511
H         -2.53374        5.26762        4.45831
H         -3.85533        4.10749        4.34283
C         -5.92408       -4.37708       -2.47642
C         -5.30151       -2.96877       -2.54203
C         -4.89008       -2.68687       -3.99694
C         -6.36743       -1.94812       -2.10177
H         -6.24471       -4.61727       -1.46282
H         -6.79902       -4.44302       -3.12309
H         -5.21475       -5.13620       -2.80559
H         -5.75101       -2.74305       -4.66292
H         -4.45427       -1.69374       -4.09891
H         -4.15724       -3.41794       -4.33620
H         -6.00053       -0.92746       -2.20140
H         -7.26822       -2.03718       -2.70876
H         -6.64528       -2.10775       -1.06008
C         -2.12683       -4.50125        2.38919
C         -2.04715       -4.92437        0.91000
C         -0.59168       -5.25104        0.53513
C         -2.89584       -6.19693        0.72424
H         -1.77797       -5.29970        3.04379
H         -1.51844       -3.61974        2.58436
H         -3.15355       -4.26203        2.66529
H         -0.53183       -5.59244       -0.49775
H          0.04593       -4.37388        0.63241
H         -0.18788       -6.03636        1.17385
H         -3.93930       -6.01309        0.97967
H         -2.84827       -6.55467       -0.30411
H         -2.53452       -6.99885        1.36799
C          6.74533        0.59492        0.90020
C          6.39611       -0.40444        2.01901
C          7.38922       -1.57923        1.94736
C          6.53240        0.31232        3.37468
H          6.66253        0.12259       -0.07744
H          6.08531        1.46186        0.92483
H          7.76795        0.95632        1.00774
H          7.28322       -2.11515        1.00429
H          8.41742       -1.22522        2.02060
H          7.22438       -2.28952        2.75656
H          7.53436        0.72192        3.50137
H          5.81913        1.13311        3.44787
H          6.34259       -0.36932        4.20300
C          3.49542       -4.63936        3.70940
C          2.69083       -3.33158        3.81098
C          1.19564       -3.65884        3.64297
C          2.88948       -2.70009        5.20190
H          3.16205       -5.36152        4.45451
H          3.37401       -5.08973        2.72432
H          4.55867       -4.46222        3.86756
H          1.01016       -4.14179        2.68527
H          0.85616       -4.33787        4.42498
H          0.58890       -2.75530        3.70246
H          2.35235       -1.75435        5.27264
H          2.51815       -3.35926        5.98633
H          3.94154       -2.50335        5.40372
C          0.94823        4.99517       -0.66255
C          2.17573        4.88976       -1.58720
C          1.80770        5.49686       -2.95381
C          3.33229        5.68736       -0.95849
H          0.63172        6.03260       -0.55557
H          0.10716        4.43153       -1.06501
H          1.17509        4.61547        0.33343
H          1.46086        6.52411       -2.84313
H          2.66234        5.50609       -3.62897
H          1.01319        4.92255       -3.42839
H          3.04725        6.72680       -0.79691
H          3.61463        5.26058        0.00380
H          4.21295        5.67759       -1.59978
C          5.88209        2.75751       -4.41558
C          5.32197        1.49835       -3.72609
C          4.90310        0.49583       -4.81700
C          6.43623        0.87853       -2.86415
H          5.12500        3.23221       -5.03960
H          6.23293        3.48377       -3.68262
H          6.72626        2.50366       -5.05664
H          4.15258        0.93155       -5.47468
H          5.75727        0.21226       -5.43174
H          4.48888       -0.41396       -4.38429
H          7.31632        0.65239       -3.46590
H          6.73609        1.56559       -2.07320
H          6.10309       -0.04898       -2.39996
H         -1.94769       -0.95923       -4.16559
H          1.72973       -0.48493       -4.32707
H         -2.04427       -2.67453       -4.55778
H         -0.83800       -1.66361       -5.34537
H          1.99377        1.09189       -5.06624
H          0.73114        0.03352       -5.69012
