72
-108.40294254
Cl        -1.82590        0.65468        2.68245
Cl         1.03867       -0.74629        2.73251
P          1.14110       -1.12354       -0.31535
P         -2.26335        0.09183       -0.37667
C         -3.23332       -1.52921       -0.19955
C         -3.60257       -1.73527        1.27062
C         -4.49016       -1.48069       -1.06102
C         -3.36808        1.61689       -0.08829
C         -4.34236        1.42842        1.07078
C         -1.45106        0.44599       -2.04403
C         -1.48833       -0.69176       -3.04313
C          1.13157        0.26323       -1.49164
C         -0.04409        1.00668       -1.94225
C          0.44867        2.14040       -2.72669
C          1.89536        2.06480       -2.79476
C          2.31481        0.90208       -2.03664
C         -2.34956       -2.69370       -0.62589
H         -2.71815       -1.71753        1.90757
H         -4.29170       -0.97787        1.63410
H         -5.00784       -2.44103       -1.03793
H         -4.25500       -1.25789       -2.10067
C         -2.41776        2.76345        0.22414
H         -4.84921        2.36742        1.29782
H         -3.83066        1.11269        1.97736
H         -2.06810        1.25381       -2.44794
H         -1.13159       -0.36376       -4.02166
H         -2.49139       -1.09401       -3.17970
H         -0.82636       -1.49537       -2.72939
H         -0.17824        2.84960       -3.27057
H          2.55149        2.74842       -3.33790
Pd        -0.50429       -0.30512        1.15173
H          3.34077        0.57416       -1.85711
C         -4.16672        1.94174       -1.35758
H         -5.11649        0.70207        0.83055
H         -2.95478        3.71249        0.27913
H         -1.93123        2.60572        1.18560
H         -1.64917        2.85516       -0.54467
H         -3.54583        2.39761       -2.12801
H         -4.63556        1.05442       -1.77933
H         -4.95835        2.65965       -1.13655
H         -4.08847       -2.70215        1.41157
H         -5.19169       -0.72872       -0.70387
H         -2.11058       -2.66343       -1.68570
H         -1.42101       -2.69395       -0.05776
H         -2.84816       -3.64640       -0.43931
C          2.81541       -1.21091        0.37205
C          3.28076       -2.21847        1.18002
C          4.60214       -1.90882        1.50202
C          4.89100       -0.72300        0.87333
O          3.80313       -0.28399        0.17567
H          2.72043       -3.07459        1.51736
H          5.26498       -2.48563        2.12616
H          5.83731       -0.19803        0.91596
C          0.78681       -2.71269       -1.08791
C          0.71417       -3.89191       -0.38794
C          0.42710       -4.89814       -1.31136
C          0.33732       -4.28936       -2.53907
O          0.55260       -2.94628       -2.41552
H          0.83570       -4.00761        0.67707
H          0.30031       -5.94764       -1.10154
H          0.12501       -4.78662       -3.47739
Fe         1.25983        2.17434       -0.83678
C          2.13471        2.00233        1.01127
C          0.82434        2.60941        1.10458
C          0.82631        3.82702        0.31460
C          2.14414        3.97074       -0.27606
C          2.94534        2.83534        0.14529
H          2.44537        1.07569        1.49725
H          0.01344        2.24069        1.73533
H          0.00165        4.53709        0.22136
H          2.47755        4.79212       -0.91381
H          3.98976        2.65155       -0.11655
