111
-148.55446037
P         -2.67061        1.94997       -0.37619
P          0.06508        0.55663        0.36724
C         -1.91697        2.25615        1.24580
C         -0.69867        1.68517        1.54469
C         -3.51229        3.46000       -1.03710
C         -2.69802        4.11960       -2.12863
C         -2.55348        3.04585        2.18203
H         -3.51520        3.47455        1.95285
C         -1.96048        3.26755        3.41318
H         -2.45677        3.88404        4.14481
C         -0.73608        2.69815        3.70698
H         -0.27655        2.86873        4.66662
C         -0.10453        1.89953        2.77044
H          0.84281        1.43149        2.98852
Pd        -1.03725        0.90487       -1.62961
Cl        -2.38545        1.12332       -3.41163
Cl         0.60276       -0.11694       -2.77554
C         -4.88007        2.91549       -1.48868
C         -4.09551        0.76964       -0.33046
H         -3.19689        5.01126       -2.51540
H         -1.71064        4.41338       -1.76446
H         -2.54758        3.43820       -2.96683
H         -4.81593        2.63959       -2.55032
H         -5.64528        3.70476       -1.43359
H         -3.92286        0.05465       -1.14613
C         -5.30176        1.67068       -0.65593
C         -4.17997        0.05503        1.00090
H         -3.63765        4.14277       -0.18719
H         -5.76177        1.99944        0.28610
H         -6.08010        1.09415       -1.17858
H         -5.03707       -0.62137        1.03814
H         -3.27885       -0.53132        1.19183
H         -4.28474        0.77023        1.81882
C         -1.23875       -3.71804        1.23732
C         -0.60997       -3.40160        0.00603
C         -0.24470       -2.08674       -0.22117
C         -0.41102       -1.12793        0.74183
C         -0.91568       -1.44965        1.97393
C         -1.30780       -2.74486        2.26739
O         -1.83417       -4.99385        1.42399
C         -0.35558       -4.44303       -1.09411
H          0.15774       -1.77939       -1.17084
H         -1.01378       -0.66603        2.70420
C         -1.83113       -3.06636        3.67597
C          4.58800        0.95981        0.04018
C          3.74683        1.92589       -0.57406
C          2.37609        1.79883       -0.41515
C          1.83934        0.72359        0.24289
C          2.64135       -0.27711        0.72676
C          4.01936       -0.21230        0.60548
O          5.98141        1.19987        0.15549
C          4.26748        3.08421       -1.44178
H          1.70655        2.54125       -0.81641
H          2.17475       -1.12443        1.20003
C          4.83995       -1.43138        1.05962
C         -0.10765       -5.83828       -0.49321
C         -1.56141       -4.47931       -2.04520
C          0.90505       -4.07438       -1.90983
C         -1.49622       -4.51533        4.07387
C         -1.16908       -2.14630        4.72698
C         -3.35051       -2.84286        3.71876
C         -3.19404       -5.06208        1.01321
H         -0.98403       -6.20464        0.03535
H          0.13479       -6.56235       -1.27065
H          0.72077       -5.80940        0.21386
H         -2.47183       -4.75345       -1.51749
H         -1.72301       -3.50155       -2.49869
H         -1.40552       -5.20135       -2.84623
H          1.16208       -4.87187       -2.60650
H          0.75554       -3.17146       -2.49976
H          1.75909       -3.91650       -1.25213
H         -1.99685       -5.23050        3.42597
H         -0.42384       -4.69436        4.00350
H         -1.80861       -4.72310        5.09698
H         -1.48795       -1.11098        4.61511
H         -1.43858       -2.45590        5.73650
H         -0.08306       -2.18237        4.64452
H         -3.75019       -3.06691        4.70744
H         -3.59471       -1.80722        3.48395
H         -3.86294       -3.47534        2.99789
H         -3.81625       -5.35852        1.85752
H         -3.52743       -4.09371        0.63771
H         -3.30303       -5.81228        0.23022
C          6.32115        1.90057        1.34000
C          4.11964        4.40723       -0.67318
C          5.73724        2.89088       -1.85387
C          3.44012        3.15812       -2.74477
C          6.28214       -1.39641        0.52489
C          4.86257       -1.48975        2.59560
C          4.18700       -2.72097        0.51293
H          4.45785        5.24850       -1.27761
H          3.07972        4.58566       -0.40136
H          4.70562        4.39627        0.24396
H          5.87597        1.92554       -2.33942
H          6.05735        3.66948       -2.54585
H          6.39657        2.92726       -0.98979
H          3.84241        3.91393       -3.41875
H          3.45616        2.20051       -3.26444
H          2.40067        3.41719       -2.55121
H          6.28718       -1.28526       -0.55886
H          6.83889       -0.56351        0.94795
H          6.81700       -2.31207        0.77598
H          3.85190       -1.55391        2.99772
H          5.41836       -2.35992        2.94398
H          5.33171       -0.60194        3.01554
H          3.19933       -2.88843        0.93937
H          4.79392       -3.59450        0.74957
H          4.08218       -2.66783       -0.57035
H          6.01665        1.32648        2.21370
H          7.39979        2.05623        1.36880
H          5.81724        2.86561        1.36048
