105
-153.06491223
Cl         0.01262        1.85510        3.09586
Pd        -0.44878        1.29803        0.95918
P         -1.08054        0.52166       -1.16648
N         -0.61078       -0.95793       -1.99836
C          0.24337       -1.99384       -1.62500
C          0.32239       -2.48475       -0.29809
C          1.23945       -3.51417        0.00124
C          1.30646       -4.04296        1.41480
C          2.08478       -5.35856        1.57199
C          3.37746       -5.33141        0.75179
C          3.06576       -5.13072       -0.73843
C          2.04844       -4.04982       -1.00476
C          1.90892       -3.59016       -2.30790
C          1.02224       -2.59203       -2.61455
H          0.94170       -2.23114       -3.62514
H          2.52129       -4.02165       -3.08158
H          3.98478       -4.89531       -1.29053
H          4.01411       -4.51023        1.10471
H          2.29985       -5.56176        2.63060
H          1.76257       -3.27277        2.04738
C         -0.67399       -2.08673        0.72683
C         -0.23029       -1.51336        1.95080
C         -1.14735       -1.38021        2.99728
C         -2.44824       -1.78429        2.85135
C         -2.90231       -2.34442        1.66365
C         -4.33617       -2.81492        1.60902
C         -4.65663       -3.73480        0.42086
C         -3.99179       -3.22691       -0.86066
C         -2.46708       -3.14663       -0.69118
C         -2.01966       -2.48339        0.58933
H         -2.03468       -4.15338       -0.73065
H         -4.38350       -2.23144       -1.10339
H         -5.74305       -3.83012        0.28280
H         -4.99173       -1.93780        1.58406
H         -3.13877       -1.67083        3.66993
H         -0.82052       -0.93173        3.91899
N          1.07688       -1.03388        2.12515
P          1.63422        0.20475        1.00105
C          2.62187       -0.33280       -0.38215
C          2.42359        0.26997       -1.59930
C          3.22103       -0.08015       -2.67340
C          4.23117       -1.02154       -2.52393
C          4.42258       -1.60726       -1.27892
C          3.62265       -1.25682       -0.20603
H          3.76871       -1.70084        0.76586
H          5.19759       -2.34431       -1.15617
C          5.06103       -1.43219       -3.68965
H          3.05842        0.37239       -3.63651
H          1.63738        0.99859       -1.70393
C          2.57017        1.50390        1.81329
C          3.30114        1.22604        2.94315
C          4.02238        2.23371        3.55778
C          4.02298        3.52109        3.03743
C          3.27900        3.77972        1.89406
C          2.55933        2.77105        1.27958
H          1.98396        2.96810        0.38824
H          3.26318        4.77739        1.48972
C          4.77269        4.61377        3.71675
H          4.58814        2.02578        4.44985
H          3.30963        0.22346        3.33911
H          1.25198       -0.62521        3.03407
H         -0.86896       -0.86953       -2.97328
C         -0.63170        1.91820       -2.21343
C         -0.93983        3.19839       -1.82016
C         -0.58444        4.27370       -2.61139
C          0.07959        4.07554       -3.81372
C          0.38757        2.77771       -4.19718
C          0.02720        1.70523       -3.40226
H          0.27680        0.70143       -3.70148
H          0.91514        2.61238       -5.12109
C          0.49147        5.23397       -4.65394
H         -0.81916        5.27635       -2.29712
H         -1.45758        3.35121       -0.88847
C         -2.87610        0.49169       -1.11694
C         -3.54297        0.64444       -2.30967
C         -4.92636        0.62228       -2.33500
C         -5.65069        0.44800       -1.16387
C         -4.95978        0.30677        0.03100
C         -3.57755        0.31192        0.05055
H         -3.04077        0.18750        0.97711
H         -5.51326        0.20343        0.94844
C         -7.13945        0.45197       -1.17922
H         -5.45150        0.74685       -3.26652
H         -2.97771        0.78498       -3.21800
Cl        -2.24673        2.65653        1.01860
H          2.69758       -6.06971       -1.16875
H          1.45897       -6.19399        1.23379
H          3.96190       -6.24860        0.91163
H          0.28393       -4.16601        1.79351
H         -4.25750       -3.86315       -1.71674
H         -2.03571       -2.60819       -1.54146
H         -4.57272       -3.32422        2.55213
H         -4.29756       -4.74895        0.63712
H          5.18722       -0.60780       -4.39288
H          6.05462       -1.75227       -3.37287
H          4.59437       -2.26147       -4.22311
H          5.11913        5.35880        2.99913
H          4.14076        5.11916        4.44827
H          5.64820        4.22557        4.23909
H         -0.20161        6.06874       -4.54054
H          1.48637        5.58182       -4.37266
H          0.51506        4.96520       -5.71096
H         -7.52591        1.44874       -0.96256
H         -7.52539        0.14518       -2.15235
H         -7.54098       -0.23489       -0.43271
