105
-153.05842019
Cl        -0.01126        2.17779        3.01967
Pd        -0.38790        1.43389        0.92483
P         -1.00570        0.49507       -1.16149
N         -0.50491       -1.00794       -1.94524
C          0.35051       -2.04634       -1.56812
C          0.36155       -2.59666       -0.26425
C          1.20507       -3.68871        0.02439
C          1.10470       -4.35725        1.37596
C          1.71826       -5.76474        1.41791
C          3.10373       -5.76767        0.76503
C          3.01755       -5.32976       -0.70572
C          2.06383       -4.18776       -0.95874
C          2.02486       -3.64084       -2.23547
C          1.17581       -2.60900       -2.54008
H          1.15864       -2.19681       -3.53397
H          2.67473       -4.04311       -2.99420
H          4.01094       -5.04375       -1.07474
H          3.76157       -5.08015        1.31175
H          1.77081       -6.14070        2.44949
H          1.59459       -3.72896        2.12697
C         -0.62676       -2.15442        0.74601
C         -0.17795       -1.47910        1.91141
C         -1.11320       -1.17173        2.90359
C         -2.42641       -1.54441        2.77307
C         -2.87739       -2.22345        1.64625
C         -4.32221       -2.65896        1.60196
C         -4.79973       -3.12060        0.21506
C         -3.74822       -4.00542       -0.46043
C         -2.42258       -3.24723       -0.62374
C         -1.97852       -2.51535        0.61860
H         -1.62933       -3.93890       -0.93406
H         -4.11184       -4.37189       -1.43087
H         -4.99033       -2.24499       -0.41688
H         -4.95157       -1.83808        1.96744
H         -3.12841       -1.31327        3.55622
H         -0.77901       -0.63077        3.77134
N          1.16682       -1.06540        2.05946
P          1.65968        0.30054        1.07189
C          2.58693       -0.13002       -0.39196
C          2.33922        0.56837       -1.54723
C          3.06732        0.28696       -2.68853
C          4.05801       -0.68536       -2.67149
C          4.30160       -1.37048       -1.48844
C          3.57158       -1.08806       -0.34798
H          3.76837       -1.61148        0.57370
H          5.06114       -2.13322       -1.46790
C          4.81087       -1.02175       -3.91096
H          2.86698        0.82015       -3.60184
H          1.57484        1.32708       -1.55085
C          2.62083        1.48740        2.00672
C          2.98581        1.18319        3.29499
C          3.71539        2.09610        4.03533
C          4.08565        3.31546        3.48337
C          3.69772        3.60600        2.18170
C          2.96848        2.69162        1.44310
H          2.66444        2.91295        0.43212
H          3.96605        4.55566        1.75136
C          4.84281        4.31243        4.28962
H          3.99457        1.86940        5.05005
H          2.68116        0.23929        3.71799
H          1.89920       -1.72258        1.81622
H         -0.79787       -0.96005       -2.91340
C         -0.65275        1.83848       -2.31565
C         -1.02574        3.12852       -2.02465
C         -0.75031        4.15151       -2.91114
C         -0.08977        3.89309       -4.10363
C          0.26952        2.58449       -4.39307
C         -0.01205        1.56498       -3.50237
H          0.28756        0.55545       -3.72570
H          0.77228        2.36879       -5.32042
C          0.18988        4.99006       -5.07111
H         -1.04763        5.16034       -2.68075
H         -1.53333        3.33256       -1.09785
C         -2.79997        0.41057       -1.07100
C         -3.48151        0.37966       -2.26503
C         -4.86478        0.33618       -2.27115
C         -5.57624        0.34072       -1.07960
C         -4.87124        0.36547        0.11520
C         -3.48931        0.38980        0.11730
H         -2.94423        0.40321        1.04690
H         -5.41236        0.36692        1.04583
C         -7.06361        0.27332       -1.08048
H         -5.40014        0.30483       -3.20465
H         -2.92803        0.39703       -3.19120
Cl        -2.17994        2.80402        0.84446
H          2.71000       -6.18089       -1.32505
H          1.06295       -6.46301        0.88230
H          3.57386       -6.75733        0.85288
H          0.04914       -4.39796        1.67343
H         -3.58145       -4.90183        0.14992
H         -2.51195       -2.51938       -1.43873
H         -4.45871       -3.47199        2.32504
H         -5.76289       -3.64529        0.28722
H          4.90589       -0.15187       -4.56238
H          5.81719       -1.37234       -3.67766
H          4.30183       -1.80765       -4.47073
H          4.16168        4.94917        4.85579
H          5.51082        3.82028        4.99792
H          5.45205        4.95464        3.65204
H          0.34194        5.93971       -4.55623
H          1.08880        4.78212       -5.65320
H         -0.64094        5.11368       -5.76709
H         -7.48084        0.78793       -0.21381
H         -7.47858        0.74133       -1.97420
H         -7.40458       -0.76258       -1.05331
