111
-148.55637717
P         -1.71200        2.68273        0.99194
P         -0.43249       -0.17071        0.53292
C         -1.26291        1.65390        2.41909
C         -0.77436        0.38039        2.21547
C         -0.64890        4.19146        0.89578
C          0.23491        4.14044       -0.33279
C         -1.38288        2.14628        3.70287
H         -1.73025        3.15509        3.85501
C         -1.03550        1.35069        4.78111
H         -1.13272        1.73338        5.78398
C         -0.55887        0.07022        4.57399
H         -0.28303       -0.54645        5.41352
C         -0.41784       -0.41312        3.28546
H         -0.01438       -1.39679        3.10336
Pd        -1.66592        1.24426       -0.81370
Cl        -2.76333        2.82218       -1.96659
Cl        -1.46995       -0.28319       -2.45025
C         -1.66940        5.34762        0.89326
C         -3.38245        3.46734        1.14190
H          0.85612        5.03527       -0.41652
H          0.89491        3.27033       -0.31532
H         -0.37019        4.07073       -1.23901
H         -1.82354        5.67703       -0.14343
H         -1.25902        6.22182        1.42089
H         -3.82138        3.42688        0.13629
C         -3.03581        4.92270        1.50396
C         -4.27720        2.75370        2.13308
H         -0.05006        4.20283        1.81582
H         -2.99726        5.01761        2.59785
H         -3.84017        5.59968        1.17763
H         -4.40743        1.70325        1.86292
H         -3.85431        2.78257        3.13762
H         -5.26564        3.21617        2.18163
C         -0.59820       -4.67850       -0.08049
C         -1.76127       -3.89849       -0.30754
C         -1.69715       -2.53582       -0.06543
C         -0.51994       -1.94151        0.30529
C          0.63252       -2.67420        0.42295
C          0.63711       -4.04088        0.19961
O         -0.67603       -6.09652       -0.10546
C         -3.07746       -4.50800       -0.81582
H         -2.56691       -1.91226       -0.18080
H          1.53928       -2.15559        0.68376
C          1.96901       -4.80472        0.26585
C          3.69923        1.29673       -0.69925
C          3.20987        1.59545        0.60080
C          1.96143        1.11375        0.95663
C          1.18389        0.43540        0.05504
C          1.59384        0.26814       -1.24064
C          2.83104        0.71995       -1.66410
O          5.06899        1.49804       -1.00812
C          3.98277        2.42912        1.63651
H          1.58498        1.25981        1.95407
H          0.91702       -0.20868       -1.92890
C          3.16694        0.58802       -3.15848
C         -3.93852       -4.93554        0.38187
C         -3.86794       -3.47463       -1.65107
C         -2.80994       -5.71431       -1.73444
C          2.20633       -5.28989        1.70366
C          1.96981       -6.00000       -0.70437
C          3.14419       -3.88847       -0.14814
C         -0.98279       -6.68206        1.15335
H         -4.88462       -5.36228        0.04984
H         -3.42821       -5.68040        0.98786
H         -4.15918       -4.08178        1.02212
H         -3.24143       -3.04965       -2.43494
H         -4.73095       -3.93956       -2.12698
H         -4.24384       -2.65987       -1.03421
H         -2.32676       -6.52474       -1.19430
H         -3.73850       -6.10365       -2.15111
H         -2.15996       -5.42948       -2.56113
H          2.23866       -4.44742        2.39417
H          1.41097       -5.95538        2.03089
H          3.15025       -5.82854        1.78331
H          1.21808       -6.73529       -0.42817
H          1.75620       -5.66925       -1.72024
H          2.93681       -6.50237       -0.70700
H          4.06930       -4.45862       -0.22979
H          2.95143       -3.42365       -1.11474
H          3.31905       -3.09994        0.58236
H         -1.90276       -7.26079        1.07258
H         -0.17996       -7.35799        1.44720
H         -1.10434       -5.90918        1.91334
C          5.86686        0.36156       -0.72149
C          5.15398        3.20270        1.00646
C          3.03828        3.47703        2.26607
C          4.51343        1.50261        2.74263
C          3.42360       -0.89071       -3.49349
C          1.97343        1.09860       -3.99688
C          4.39173        1.42733       -3.56059
H          5.62846        3.85961        1.73508
H          5.91611        2.52499        0.62898
H          4.80718        3.81280        0.17311
H          3.57860        4.11653        2.96356
H          2.60440        4.11431        1.49658
H          2.22408        3.01106        2.81850
H          5.04924        2.07069        3.50265
H          3.69627        0.97391        3.23256
H          5.19567        0.75759        2.33767
H          4.26702       -1.28131       -2.92703
H          2.55253       -1.50060       -3.25564
H          3.64271       -1.01767       -4.55329
H          1.71611        2.11977       -3.71710
H          2.21359        1.09118       -5.05965
H          1.08767        0.48045       -3.86122
H          4.25729        2.46791       -3.26731
H          4.55367        1.39520       -4.63775
H          5.29588        1.05999       -3.08097
H          6.90015        0.56769       -1.00136
H          5.82122        0.13174        0.34179
H          5.50626       -0.49960       -1.28205
