111
-148.55259028
P         -2.21171        2.20336        1.17721
P          0.12402        0.18292        0.46087
C         -1.17289        1.52371        2.49575
C         -0.16757        0.63808        2.17913
C         -2.40930        4.02765        1.41117
C         -2.04883        4.77158        0.14414
C         -1.38003        1.88873        3.81062
H         -2.15868        2.59415        4.05076
C         -0.58486        1.35143        4.80823
H         -0.74659        1.63496        5.83540
C          0.41328        0.45087        4.48916
H          1.03041        0.02973        5.26567
C          0.62183        0.09197        3.16944
H          1.39704       -0.60927        2.90189
Pd        -1.42835        1.33696       -0.82102
Cl        -3.16633        2.36810       -1.79923
Cl        -0.61578        0.38796       -2.68099
C         -3.88860        4.17026        1.82492
C         -3.98282        1.66640        1.27489
H         -2.15014        5.85220        0.27025
H         -1.02140        4.56062       -0.16244
H         -2.70423        4.47267       -0.67560
H         -4.27649        5.13695        1.47194
H         -3.96977        4.20197        2.92137
H         -4.18462        1.10246        0.35432
C         -4.75538        3.00133        1.27897
C         -4.23869        0.80002        2.48998
H         -1.73691        4.31692        2.23039
H         -5.67590        2.89144        1.87051
H         -5.08639        3.24241        0.25808
H         -5.27063        0.44211        2.51698
H         -3.57829       -0.07001        2.50543
H         -4.06276        1.36189        3.40848
C         -1.22777       -4.12772       -0.11093
C         -2.17878       -3.08662        0.04068
C         -1.71231       -1.79869        0.24594
C         -0.37096       -1.51813        0.20943
C          0.54788       -2.50323       -0.04076
C          0.14947       -3.81456       -0.24131
O         -1.64889       -5.48416       -0.09733
C         -3.69515       -3.33114       -0.01221
H         -2.39704       -0.99062        0.43831
H          1.58860       -2.23317       -0.07108
C          1.20680       -4.87845       -0.57558
C          4.41876        1.04610       -0.82090
C          3.92002        1.58785        0.39101
C          2.62071        1.28144        0.76034
C          1.80583        0.53791       -0.05423
C          2.24869        0.11352       -1.27982
C          3.54010        0.37288       -1.70683
O          5.79748        1.15831       -1.14491
C          4.76281        2.48777        1.30917
H          2.22405        1.62503        1.69930
H          1.55491       -0.40951       -1.91355
C          3.97722       -0.06968       -3.11254
C         -4.21866       -3.60055        1.40638
C         -4.42373       -2.09197       -0.58127
C         -4.03531       -4.51269       -0.93872
C          0.62400       -5.96876       -1.49324
C          2.39706       -4.24513       -1.33037
C          1.72775       -5.50534        0.72623
C         -1.70887       -6.05889        1.20193
H         -4.00934       -2.75517        2.06137
H         -5.29601       -3.76403        1.40025
H         -3.74753       -4.47935        1.84024
H         -4.38092       -1.25021        0.10699
H         -3.98285       -1.78330       -1.52886
H         -5.47748       -2.30755       -0.75604
H         -5.11347       -4.64237       -1.02921
H         -3.62849       -4.34682       -1.93571
H         -3.62270       -5.44500       -0.56164
H         -0.17059       -6.52112       -0.99768
H          0.20935       -5.52651       -2.39849
H          1.39054       -6.68587       -1.78590
H          2.96707       -3.57236       -0.69128
H          3.08616       -5.01290       -1.68150
H          2.04869       -3.68556       -2.19814
H          2.48956       -6.25680        0.52028
H          2.16849       -4.74498        1.37058
H          0.92477       -5.98445        1.28124
H         -1.39177       -5.33482        1.95348
H         -2.72842       -6.38027        1.41393
H         -1.06056       -6.93400        1.24374
C          6.60667        0.11017       -0.62652
C          5.49221        1.61809        2.34427
C          5.77639        3.31627        0.49870
C          3.86189        3.49508        2.06046
C          4.93118        0.96570       -3.73528
C          4.66605       -1.43982       -3.03112
C          2.75932       -0.19200       -4.05627
H          6.09706        2.23080        3.01226
H          4.77808        1.06150        2.95084
H          6.14815        0.89689        1.86291
H          5.26750        3.90427       -0.26439
H          6.32758        4.00083        1.14293
H          6.50200        2.67994       -0.00114
H          4.46461        4.21828        2.60940
H          3.23141        4.04601        1.36298
H          3.21907        2.99951        2.78648
H          4.46336        1.94919       -3.76487
H          5.85121        1.05058       -3.16161
H          5.20125        0.68731       -4.75359
H          3.99493       -2.18299       -2.60331
H          4.96557       -1.78549       -4.02020
H          5.55534       -1.39878       -2.40795
H          2.11051       -1.01838       -3.76930
H          3.08044       -0.37842       -5.08072
H          2.17017        0.72464       -4.05215
H          7.31614        0.51451        0.09488
H          5.98716       -0.64651       -0.14344
H          7.17352       -0.34544       -1.43837
