45
-71.81584791
C          0.39837        0.50250        2.51987
P          0.97125        0.58994        0.78975
P         -1.59774        0.38202       -1.02858
C         -2.39057        0.16178       -2.65621
Cl         1.49614       -2.57779        0.49470
H         -0.68187        0.60995        2.55613
H         -1.66306        0.32437       -3.44628
Cl        -1.07393       -2.66962       -1.63453
C          0.33465        2.06629       -0.02928
C         -0.77179        1.97681       -0.84584
C         -1.27025        3.10511       -1.46411
C         -0.64680        4.32552       -1.27177
C          0.46544        4.41390       -0.45699
C          0.95681        3.28163        0.16861
H         -2.14677        3.02728       -2.08650
H         -1.03219        5.20804       -1.75534
H          0.94995        5.36454       -0.30638
H          1.82246        3.33518        0.80929
Pd         0.03846       -1.14349       -0.41950
H         -3.20793        0.86763       -2.77265
H          0.85209        1.30013        3.10110
H         -2.78252       -0.84778       -2.74034
C         -4.42306       -0.32404        2.45884
C         -4.08219       -1.36901        1.62225
C         -3.23261       -1.14482        0.55472
C         -2.73788        0.11870        0.32909
C         -3.06547        1.16155        1.16440
C         -3.91473        0.94063        2.23356
H         -5.08415       -0.49682        3.29233
H         -4.47040       -2.35771        1.80381
H         -2.92469       -1.95089       -0.09228
H         -2.65318        2.14034        0.97952
H         -4.17717        1.75393        2.89002
C          5.48469        0.27970        0.29866
C          4.89439       -0.17139        1.46268
C          3.52411       -0.07306        1.62495
C          2.75538        0.47797        0.62517
C          3.33846        0.92096       -0.54066
C          4.70890        0.82526       -0.70486
H          6.55210        0.20174        0.17142
H          5.49904       -0.60487        2.24231
H          3.05134       -0.43501        2.52344
H          2.71786        1.33855       -1.31793
H          5.16825        1.17333       -1.61541
H          0.66892       -0.45524        2.95504
