171
-217.84248392
P         -1.67709        0.52308       -0.23533
P          1.56143       -0.25284       -0.31093
C         -0.97784        1.57310       -1.52184
C          0.85537       -1.08928       -1.73372
C         -0.14204        1.06819       -2.51318
C          0.48977        1.97150       -3.38903
C          0.22836        3.32639       -3.27470
C         -0.62679        3.80523       -2.30622
C         -1.21794        2.92313       -1.42397
C          1.08613       -2.43575       -1.87317
C          0.53774       -3.12978       -2.93388
C         -0.24802       -2.46400       -3.85039
C         -0.49553       -1.10651       -3.72709
C          0.07899       -0.39639       -2.65459
Cl         1.72101        1.12102        2.66417
Cl        -1.40093        0.19757        3.06200
C         -1.34637       -0.41921       -4.73754
C          1.43474        1.50344       -4.43867
H         -0.82432        4.86199       -2.22903
H         -1.87180        3.29322       -0.65159
H          1.70085       -2.94599       -1.14959
H          0.72067       -4.18628       -3.04286
H          0.70733        4.00949       -3.95588
H         -0.67901       -3.00107       -4.67828
C         -3.09398       -3.61580       -1.38229
C         -2.16282       -3.48548       -0.35872
C         -1.73482       -2.20555       -0.03435
C         -2.20647       -1.11572       -0.72477
C         -3.12523       -1.26028       -1.73457
C         -3.59678       -2.52205       -2.07708
H         -3.45503       -4.59314       -1.64145
H         -1.03948       -2.05563        0.77358
H         -3.47567       -0.37865       -2.24383
C         -4.97124        2.66175        2.03603
C         -3.65961        3.10099        2.17889
C         -2.67074        2.43677        1.46702
C         -2.98385        1.37782        0.65254
C         -4.28289        0.95439        0.52586
C         -5.30641        1.58929        1.21632
H         -5.74819        3.16147        2.58164
H         -1.63986        2.73221        1.57103
H         -4.50013        0.11287       -0.10838
C          3.94934       -3.33769        2.05693
C          2.78409       -2.83381        2.61783
C          2.06685       -1.89882        1.88730
C          2.51038       -1.45442        0.66350
C          3.67254       -1.96109        0.13236
C          4.41233       -2.91930        0.81656
H          4.51480       -4.07670        2.59262
H          1.15508       -1.51012        2.30167
H          3.99179       -1.61686       -0.83427
C          4.07055        3.31808       -1.53874
C          4.39817        2.07421       -2.06652
C          3.60981        0.98790       -1.70392
C          2.57822        1.13997       -0.80892
C          2.27782        2.37625       -0.29310
C          3.01152        3.49642       -0.65840
H          4.65587        4.17604       -1.81051
H          3.79124        0.02050       -2.13813
H          1.45808        2.46441        0.39734
Pd         0.03207        0.42475        1.34378
C         -2.14718       -4.53671        1.90827
C         -1.65247       -4.68130        0.45785
C         -0.11288       -4.70822        0.43328
C         -2.16547       -6.01962       -0.10718
H         -1.79188       -5.35992        2.52775
H         -1.79786       -3.60532        2.35165
H         -3.23636       -4.53164        1.94414
H          0.25158       -4.81430       -0.58743
H          0.30905       -3.79442        0.84827
H          0.27260       -5.54652        1.01300
H         -1.85362       -6.15138       -1.14323
H         -1.77055       -6.85776        0.46693
H         -3.25291       -6.07523       -0.06261
C         -5.90939       -3.38728       -2.50024
C         -4.67583       -2.73136       -3.14896
C         -4.12500       -3.64492       -4.25880
C         -5.11781       -1.39760       -3.78234
H         -5.66550       -4.36209       -2.07967
H         -6.29760       -2.76328       -1.69522
H         -6.70535       -3.52944       -3.23103
H         -3.23925       -3.20590       -4.71587
H         -3.84773       -4.62257       -3.86647
H         -4.86740       -3.79838       -5.04180
H         -4.28191       -0.89260       -4.26396
H         -5.88279       -1.56439       -4.54057
H         -5.53822       -0.72823       -3.03234
C         -2.30583        3.71574        4.19268
C         -3.25713        4.25499        3.10747
C         -4.48100        4.88758        3.79642
C         -2.54044        5.34340        2.28607
H         -2.01214        4.50570        4.88348
H         -2.78718        2.92446        4.76680
H         -1.39871        3.30134        3.75419
H         -5.00433        4.15792        4.41403
H         -4.17761        5.70976        4.44447
H         -5.18114        5.28658        3.06267
H         -1.63134        4.95866        1.82561
H         -3.18696        5.71416        1.49095
H         -2.26138        6.18753        2.91639
C         -7.73893        1.88679        1.91016
C         -6.74510        1.07750        1.05531
C         -6.80981       -0.39760        1.49493
C         -7.16173        1.19421       -0.42261
H         -7.49019        1.82007        2.96914
H         -7.74154        2.93730        1.62002
H         -8.75342        1.50825        1.78549
H         -6.49011       -0.50417        2.53129
H         -7.82496       -0.78541        1.41232
H         -6.16381       -1.02369        0.88039
H         -7.09998        2.22879       -0.75958
H         -6.51629        0.59491       -1.06348
H         -8.18609        0.85161       -0.56791
C          0.86117       -3.77351        3.93834
C          2.29608       -3.22281        4.02128
C          2.31301       -1.97010        4.91767
C          3.19462       -4.29881        4.65972
H          0.17314       -3.02537        3.54765
H          0.82066       -4.64613        3.28757
H          0.50049       -4.07133        4.92264
H          1.65365       -1.19594        4.52646
H          1.98534       -2.20825        5.92929
H          3.31769       -1.55226        4.97593
H          4.21707       -3.93942        4.77424
H          2.82876       -4.57001        5.64997
H          3.21117       -5.20473        4.05396
C          6.09319       -2.87328       -1.09337
C          5.69141       -3.53958        0.23573
C          5.45155       -5.03857       -0.01853
C          6.85135       -3.35871        1.23338
H          6.27349       -1.80872       -0.94998
H          7.00925       -3.31378       -1.48678
H          5.31770       -2.99811       -1.84888
H          4.62496       -5.18304       -0.71415
H          6.33774       -5.50953       -0.44361
H          5.20554       -5.56076        0.90551
H          7.78017       -3.75900        0.82727
H          7.00709       -2.30281        1.45386
H          6.65350       -3.87170        2.17355
C          5.07446        1.59618       -4.43895
C          5.58999        1.87597       -3.01768
C          6.43851        0.68212       -2.53946
C          6.49689        3.12185       -3.05751
H          4.50804        2.44608       -4.81799
H          5.90208        1.41437       -5.12443
H          4.42756        0.71956       -4.45552
H          5.88028       -0.24992       -2.60869
H          7.33588        0.57190       -3.14813
H          6.74755        0.81827       -1.50323
H          6.85271        3.37745       -2.05952
H          7.36950        2.94494       -3.68623
H          5.96924        3.98213       -3.46852
C          1.42928        4.87408        0.78330
C          2.69800        4.88927       -0.09405
C          2.47237        5.87565       -1.25485
C          3.88309        5.36085        0.76679
H          1.55637        4.22392        1.64866
H          1.20279        5.87339        1.15452
H          0.56548        4.52873        0.21622
H          1.65955        5.53598       -1.89548
H          2.21481        6.86613       -0.88017
H          3.36448        5.97585       -1.87162
H          4.79681        5.42732        0.17716
H          3.68814        6.34386        1.19509
H          4.06332        4.66460        1.58566
H         -2.11696       -1.08790       -5.12216
H          1.79855        0.49658       -4.22941
H         -0.74941       -0.08287       -5.58585
H         -1.84628        0.45046       -4.30847
H          2.30022        2.16373       -4.49341
H          0.95902        1.49734       -5.42011
