105
-153.07032838
Cl         0.43802        2.04453        3.03230
Pd        -0.31416        1.45595        0.98712
P         -1.23505        0.74986       -1.02259
N         -0.18484       -0.34729       -1.90026
C          0.35315       -1.60175       -1.64870
C          0.26225       -2.27595       -0.40535
C          0.95102       -3.49381       -0.22598
C          0.85805       -4.18924        1.11121
C          1.92203       -5.27597        1.32930
C          2.04202       -6.17744        0.09722
C          2.42765       -5.35813       -1.14404
C          1.67649       -4.05669       -1.27822
C          1.71814       -3.39796       -2.49941
C          1.07649       -2.20071       -2.67994
H          1.14661       -1.69136       -3.62539
H          2.28397       -3.83159       -3.30663
H          3.50161       -5.13852       -1.12216
H          2.76667       -6.98482        0.27439
H          2.89132       -4.80097        1.52629
H          0.92935       -3.43660        1.90582
C         -0.68590       -1.85134        0.65364
C         -0.20790       -1.25312        1.85355
C         -1.10418       -1.08133        2.91351
C         -2.41351       -1.47162        2.80177
C         -2.88750       -2.08204        1.64697
C         -4.31505       -2.55935        1.61203
C         -4.51089       -3.75562        0.67022
C         -3.93895       -3.44082       -0.71521
C         -2.44534       -3.07474       -0.64798
C         -2.02204       -2.28441        0.57068
H         -1.84724       -3.99314       -0.68112
H         -4.49942       -2.60541       -1.14805
H         -5.57208       -4.03492        0.60377
H         -4.95736       -1.72877        1.29831
H         -3.09044       -1.31560        3.62449
H         -0.75661       -0.60467        3.81312
N          1.11105       -0.80090        1.99528
P          1.75198        0.26059        0.73569
C          2.93843       -0.62985       -0.27131
C          3.28677       -0.18576       -1.52426
C          4.24119       -0.87465       -2.25046
C          4.85584       -2.00246       -1.72179
C          4.51560       -2.41133       -0.43940
C          3.55734       -1.72382        0.28306
H          3.27831       -2.03761        1.27639
H          5.00072       -3.27205       -0.01198
C          5.88654       -2.73890       -2.50397
H          4.51383       -0.54040       -3.23688
H          2.81211        0.69262       -1.92926
C          2.71110        1.61515        1.42119
C          3.50564        1.40827        2.52250
C          4.25083        2.45498        3.03478
C          4.20233        3.71173        2.44610
C          3.40934        3.89269        1.32068
C          2.66552        2.84543        0.80850
H          2.04657        2.98342       -0.06430
H          3.37634        4.85962        0.84840
C          5.01870        4.83342        2.98715
H          4.87519        2.30142        3.89830
H          3.54294        0.43057        2.97549
H          1.31722       -0.33625        2.87045
H         -0.18791       -0.03596       -2.86385
C         -1.05827        2.34361       -1.83026
C          0.18507        2.70897       -2.28889
C          0.36803        3.95291       -2.86512
C         -0.69659        4.83594       -2.98741
C         -1.94132        4.45313       -2.50478
C         -2.12107        3.20984       -1.92670
H         -3.08254        2.91554       -1.53825
H         -2.76803        5.13899       -2.57728
C         -0.49687        6.18710       -3.58066
H          1.34131        4.24665       -3.21955
H          1.00793        2.02048       -2.18722
C         -2.93635        0.24756       -1.29868
C         -3.25602       -0.30881       -2.51489
C         -4.56916       -0.64065       -2.79909
C         -5.57313       -0.40731       -1.86866
C         -5.23161        0.15785       -0.64796
C         -3.91977        0.49043       -0.37027
H         -3.65985        0.96672        0.55901
H         -6.00209        0.34338        0.08084
C         -6.98148       -0.79777       -2.15324
H         -4.82064       -1.08696       -3.74597
H         -2.47640       -0.47924       -3.23995
Cl        -2.30604        2.36633        1.49575
H          2.27009       -5.95184       -2.05363
H          1.69716       -5.86961        2.22664
H          1.08158       -6.67767       -0.08025
H         -0.14295       -4.62536        1.20977
H         -4.10107       -4.28400       -1.40126
H         -2.15502       -2.51275       -1.54372
H         -4.63871       -2.81477        2.62909
H         -3.99808       -4.63268        1.08478
H          6.87267       -2.29537       -2.36011
H          5.93978       -3.78502       -2.19903
H          5.65907       -2.71737       -3.57073
H          4.54935        5.79657        2.78206
H          5.13713        4.74753        4.06817
H          6.01301        4.84070        2.53857
H         -1.40194        6.53526       -4.08038
H         -0.23733        6.91366       -2.80951
H          0.30606        6.17856       -4.31911
H         -7.19393       -1.79336       -1.76099
H         -7.68277       -0.09886       -1.69525
H         -7.17901       -0.80947       -3.22601
