59
-75.80506941
Cl         1.50649        0.35630        2.39180
P          1.49427        0.02904       -0.86476
P         -1.70539       -0.16682       -0.77993
C          0.46466        0.28905       -2.37598
H          0.16979        1.34057       -2.41711
H          1.07657        0.08430       -3.26000
C         -0.74618       -0.59606       -2.29781
H         -0.45238       -1.64676       -2.23306
H         -1.40100       -0.48838       -3.16817
C          2.70081       -1.35380       -1.13605
H          2.80744       -1.39325       -2.22888
C          2.69524        1.40742       -0.53080
H          2.52835        1.70728        0.51086
C         -3.03116       -1.40237       -0.40100
H         -3.15780       -1.38313        0.68861
C         -2.77204        1.31771       -1.10782
H         -2.54508        1.63653       -2.13228
C          3.99822       -0.80071       -0.52406
H          4.03336       -1.05174        0.54353
H          4.87484       -1.29196       -0.97351
C          4.07620        0.74086       -0.68348
H          4.47684        0.98102       -1.67765
H          4.79120        1.17222        0.03313
C         -4.25957       -0.78147       -1.08480
H         -4.27997       -1.10283       -2.13571
H         -5.18655       -1.17167       -0.63669
C         -4.21203        0.76857       -1.01085
H         -4.64779        1.09508       -0.05670
H         -4.84708        1.21704       -1.78940
C          2.25756       -2.72391       -0.61987
H          2.95159       -3.48673       -0.99966
H          1.29034       -2.97033       -1.07635
C          2.48853        2.60050       -1.45718
H          2.63344        2.27161       -2.49468
H          1.44356        2.92939       -1.40308
C         -2.69344       -2.81632       -0.85627
H         -3.59417       -3.44215       -0.78852
H         -2.43794       -2.79628       -1.92337
C         -2.49989        2.45366       -0.12627
H         -3.29874        3.20291       -0.21819
H         -2.58709        2.06183        0.89575
C          2.16343       -2.84856        0.89432
H          1.73749       -3.80788        1.19780
H          1.53963       -2.06761        1.32612
H          3.14289       -2.77300        1.36884
C          3.41147        3.76716       -1.13742
H          3.24305        4.61753       -1.80219
H          4.46084        3.48202       -1.23063
H          3.26333        4.11603       -0.11364
C         -1.56721       -3.43623       -0.04467
H         -0.67348       -2.81327       -0.07543
H         -1.29312       -4.42908       -0.40839
H         -1.84590       -3.53482        1.00626
C         -1.14778        3.11839       -0.32201
H         -1.05014        3.52595       -1.32999
H         -0.98806        3.93837        0.38185
H         -0.33463        2.40750       -0.17892
Cl        -1.74568        0.05718        2.33606
Pd        -0.06398       -0.06553        0.84943
